########## Name        : 1VRT.lig
########## Description : AM1BCC_CHARGES =  -0.0002 ORIGINAL_CHARGES =  -0.0000

@<TRIPOS>MOLECULE
1VRT.lig
34    37    1     0     0    
SMALL
USER_CHARGES
@<TRIPOS>ATOM
1     N1       4.0540  -36.9310   22.2210 N.ar    1  LIG  -0.6650  -0.6200 
2     C1       4.9660  -36.2380   22.9390 C.ar    1  LIG   0.3947   0.1600 
3     H1       6.0082  -36.2811   22.6707 H       1  LIG   0.0281   0.1500 
4     C2       4.6240  -35.4500   24.0360 C.ar    1  LIG  -0.2334  -0.1500 
5     H2       5.3884  -34.9151   24.5740 H       1  LIG   0.1480   0.1500 
6     C3       3.3050  -35.3690   24.4150 C.ar    1  LIG  -0.0698  -0.1435 
7     C4       2.3460  -36.0770   23.6860 C.ar    1  LIG  -0.0398   0.1170 
8     N2       0.9890  -36.0280   24.1030 N.am    1  LIG  -0.4596  -0.5470 
9     H3       0.7643  -35.9928   25.0860 H       1  LIG   0.3311   0.3700 
10    C5      -0.1450  -36.0180   23.4080 C.2     1  LIG   0.7361   0.5438 
11    C6      -0.1190  -36.0770   21.8860 C.ar    1  LIG  -0.2550   0.0862 
12    C7      -1.1230  -35.3990   21.1890 C.ar    1  LIG  -0.0321  -0.1500 
13    H4      -1.7552  -34.6955   21.7041 H       1  LIG   0.1623   0.1500 
14    C8      -1.2960  -35.6300   19.8690 C.ar    1  LIG  -0.2723  -0.1500 
15    H5      -2.0662  -35.1073   19.3273 H       1  LIG   0.1522   0.1500 
16    C9      -0.4670  -36.5450   19.2400 C.ar    1  LIG   0.4373   0.1600 
17    H6      -0.5947  -36.7554   18.1915 H       1  LIG   0.0280   0.1500 
18    N3       0.5220  -37.2120   19.8740 N.ar    1  LIG  -0.6893  -0.6200 
19    C10      0.7040  -36.9790   21.1800 C.ar    1  LIG   0.6480   0.4100 
20    N4       1.7670  -37.6730   21.8260 N.pl3   1  LIG  -0.6924  -0.3690 
21    C11      2.7540  -36.8570   22.5840 C.ar    1  LIG   0.5805   0.4100 
22    C12      2.9040  -34.5090   25.6010 C.3     1  LIG  -0.0620   0.1435 
23    H7       2.2235  -33.7630   25.2820 H       1  LIG   0.0570   0.0000 
24    H8       2.4436  -35.1154   26.3371 H       1  LIG   0.0495   0.0000 
25    H9       3.7654  -34.0491   26.0108 H       1  LIG   0.0519   0.0000 
26    O1      -1.2400  -35.9060   23.9770 O.2     1  LIG  -0.6361  -0.5700 
27    C13      2.3440  -38.7570   21.0360 C.3     1  LIG   0.1354   0.0690 
28    H10      3.1238  -38.3754   20.4296 H       1  LIG   0.0981   0.1000 
29    C14      2.9380  -39.8900   21.8010 C.3     1  LIG  -0.1181  -0.2000 
30    H11      3.8890  -40.1268   21.3997 H       1  LIG   0.0732   0.1000 
31    H12      3.0430  -39.6129   22.8177 H       1  LIG   0.0789   0.1000 
32    C15      1.6390  -40.0610   21.0880 C.3     1  LIG  -0.1196  -0.2000 
33    H13      0.6832  -39.9283   21.5242 H       1  LIG   0.0807   0.1000 
34    H14      1.5292  -40.4423   20.1061 H       1  LIG   0.0733   0.1000 
@<TRIPOS>BOND
1     2     1     ar
2     3     2     1
3     4     2     ar
4     5     4     1
5     6     4     ar
6     7     6     ar
7     8     7     1
8     9     8     1
9     10    8     1
10    11    10    1
11    12    11    ar
12    13    12    1
13    14    12    ar
14    15    14    1
15    16    14    ar
16    17    16    1
17    18    16    ar
18    19    11    ar
19    19    18    ar
20    20    19    1
21    21    1     ar
22    21    7     ar
23    21    20    1
24    22    6     1
25    23    22    1
26    24    22    1
27    25    22    1
28    26    10    2
29    27    20    1
30    28    27    1
31    29    27    1
32    30    29    1
33    31    29    1
34    32    27    1
35    32    29    1
36    33    32    1
37    34    32    1
@<TRIPOS>SUBSTRUCTURE
1   LIG    1    
 
########## Name        : 1VRT.lig
########## Description : AM1BCC_CHARGES =  -0.0002 ORIGINAL_CHARGES =  -0.0000

@<TRIPOS>MOLECULE
1VRT.lig
34    37    1     0     0    
SMALL
USER_CHARGES
@<TRIPOS>ATOM
1     N1       4.0540  -36.9310   22.2210 N.ar    1  LIG  -0.6650  -0.6200 
2     C1       4.9660  -36.2380   22.9390 C.ar    1  LIG   0.3947   0.1600 
3     H1       6.0082  -36.2811   22.6707 H       1  LIG   0.0281   0.1500 
4     C2       4.6240  -35.4500   24.0360 C.ar    1  LIG  -0.2334  -0.1500 
5     H2       5.3884  -34.9151   24.5740 H       1  LIG   0.1480   0.1500 
6     C3       3.3050  -35.3690   24.4150 C.ar    1  LIG  -0.0698  -0.1435 
7     C4       2.3460  -36.0770   23.6860 C.ar    1  LIG  -0.0398   0.1170 
8     N2       0.9890  -36.0280   24.1030 N.am    1  LIG  -0.4596  -0.5470 
9     H3       0.7643  -35.9928   25.0860 H       1  LIG   0.3311   0.3700 
10    C5      -0.1450  -36.0180   23.4080 C.2     1  LIG   0.7361   0.5438 
11    C6      -0.1190  -36.0770   21.8860 C.ar    1  LIG  -0.2550   0.0862 
12    C7      -1.1230  -35.3990   21.1890 C.ar    1  LIG  -0.0321  -0.1500 
13    H4      -1.7552  -34.6955   21.7041 H       1  LIG   0.1623   0.1500 
14    C8      -1.2960  -35.6300   19.8690 C.ar    1  LIG  -0.2723  -0.1500 
15    H5      -2.0662  -35.1073   19.3273 H       1  LIG   0.1522   0.1500 
16    C9      -0.4670  -36.5450   19.2400 C.ar    1  LIG   0.4373   0.1600 
17    H6      -0.5947  -36.7554   18.1915 H       1  LIG   0.0280   0.1500 
18    N3       0.5220  -37.2120   19.8740 N.ar    1  LIG  -0.6893  -0.6200 
19    C10      0.7040  -36.9790   21.1800 C.ar    1  LIG   0.6480   0.4100 
20    N4       1.7670  -37.6730   21.8260 N.pl3   1  LIG  -0.6924  -0.3690 
21    C11      2.7540  -36.8570   22.5840 C.ar    1  LIG   0.5805   0.4100 
22    C12      2.9040  -34.5090   25.6010 C.3     1  LIG  -0.0620   0.1435 
23    H7       2.2235  -33.7630   25.2820 H       1  LIG   0.0570   0.0000 
24    H8       2.4436  -35.1154   26.3371 H       1  LIG   0.0495   0.0000 
25    H9       3.7654  -34.0491   26.0108 H       1  LIG   0.0519   0.0000 
26    O1      -1.2400  -35.9060   23.9770 O.2     1  LIG  -0.6361  -0.5700 
27    C13      2.3440  -38.7570   21.0360 C.3     1  LIG   0.1354   0.0690 
28    H10      3.1238  -38.3754   20.4296 H       1  LIG   0.0981   0.1000 
29    C14      2.9380  -39.8900   21.8010 C.3     1  LIG  -0.1181  -0.2000 
30    H11      3.8890  -40.1268   21.3997 H       1  LIG   0.0732   0.1000 
31    H12      3.0430  -39.6129   22.8177 H       1  LIG   0.0789   0.1000 
32    C15      1.6390  -40.0610   21.0880 C.3     1  LIG  -0.1196  -0.2000 
33    H13      0.6832  -39.9283   21.5242 H       1  LIG   0.0807   0.1000 
34    H14      1.5292  -40.4423   20.1061 H       1  LIG   0.0733   0.1000 
@<TRIPOS>BOND
1     2     1     ar
2     3     2     1
3     4     2     ar
4     5     4     1
5     6     4     ar
6     7     6     ar
7     8     7     1
8     9     8     1
9     10    8     1
10    11    10    1
11    12    11    ar
12    13    12    1
13    14    12    ar
14    15    14    1
15    16    14    ar
16    17    16    1
17    18    16    ar
18    19    11    ar
19    19    18    ar
20    20    19    1
21    21    1     ar
22    21    7     ar
23    21    20    1
24    22    6     1
25    23    22    1
26    24    22    1
27    25    22    1
28    26    10    2
29    27    20    1
30    28    27    1
31    29    27    1
32    30    29    1
33    31    29    1
34    32    27    1
35    32    29    1
36    33    32    1
37    34    32    1
@<TRIPOS>SUBSTRUCTURE
1   LIG    1    
 
########## Name        : 1VRT.lig
########## Description : AM1BCC_CHARGES =  -0.0002 ORIGINAL_CHARGES =  -0.0000

@<TRIPOS>MOLECULE
1VRT.lig
34    37    1     0     0    
SMALL
USER_CHARGES
@<TRIPOS>ATOM
1     N1       4.0540  -36.9310   22.2210 N.ar    1  LIG  -0.6650  -0.6200 
2     C1       4.9660  -36.2380   22.9390 C.ar    1  LIG   0.3947   0.1600 
3     H1       6.0082  -36.2811   22.6707 H       1  LIG   0.0281   0.1500 
4     C2       4.6240  -35.4500   24.0360 C.ar    1  LIG  -0.2334  -0.1500 
5     H2       5.3884  -34.9151   24.5740 H       1  LIG   0.1480   0.1500 
6     C3       3.3050  -35.3690   24.4150 C.ar    1  LIG  -0.0698  -0.1435 
7     C4       2.3460  -36.0770   23.6860 C.ar    1  LIG  -0.0398   0.1170 
8     N2       0.9890  -36.0280   24.1030 N.am    1  LIG  -0.4596  -0.5470 
9     H3       0.7643  -35.9928   25.0860 H       1  LIG   0.3311   0.3700 
10    C5      -0.1450  -36.0180   23.4080 C.2     1  LIG   0.7361   0.5438 
11    C6      -0.1190  -36.0770   21.8860 C.ar    1  LIG  -0.2550   0.0862 
12    C7      -1.1230  -35.3990   21.1890 C.ar    1  LIG  -0.0321  -0.1500 
13    H4      -1.7552  -34.6955   21.7041 H       1  LIG   0.1623   0.1500 
14    C8      -1.2960  -35.6300   19.8690 C.ar    1  LIG  -0.2723  -0.1500 
15    H5      -2.0662  -35.1073   19.3273 H       1  LIG   0.1522   0.1500 
16    C9      -0.4670  -36.5450   19.2400 C.ar    1  LIG   0.4373   0.1600 
17    H6      -0.5947  -36.7554   18.1915 H       1  LIG   0.0280   0.1500 
18    N3       0.5220  -37.2120   19.8740 N.ar    1  LIG  -0.6893  -0.6200 
19    C10      0.7040  -36.9790   21.1800 C.ar    1  LIG   0.6480   0.4100 
20    N4       1.7670  -37.6730   21.8260 N.pl3   1  LIG  -0.6924  -0.3690 
21    C11      2.7540  -36.8570   22.5840 C.ar    1  LIG   0.5805   0.4100 
22    C12      2.9040  -34.5090   25.6010 C.3     1  LIG  -0.0620   0.1435 
23    H7       2.2235  -33.7630   25.2820 H       1  LIG   0.0570   0.0000 
24    H8       2.4436  -35.1154   26.3371 H       1  LIG   0.0495   0.0000 
25    H9       3.7654  -34.0491   26.0108 H       1  LIG   0.0519   0.0000 
26    O1      -1.2400  -35.9060   23.9770 O.2     1  LIG  -0.6361  -0.5700 
27    C13      2.3440  -38.7570   21.0360 C.3     1  LIG   0.1354   0.0690 
28    H10      3.1238  -38.3754   20.4296 H       1  LIG   0.0981   0.1000 
29    C14      2.9380  -39.8900   21.8010 C.3     1  LIG  -0.1181  -0.2000 
30    H11      3.8890  -40.1268   21.3997 H       1  LIG   0.0732   0.1000 
31    H12      3.0430  -39.6129   22.8177 H       1  LIG   0.0789   0.1000 
32    C15      1.6390  -40.0610   21.0880 C.3     1  LIG  -0.1196  -0.2000 
33    H13      0.6832  -39.9283   21.5242 H       1  LIG   0.0807   0.1000 
34    H14      1.5292  -40.4423   20.1061 H       1  LIG   0.0733   0.1000 
@<TRIPOS>BOND
1     2     1     ar
2     3     2     1
3     4     2     ar
4     5     4     1
5     6     4     ar
6     7     6     ar
7     8     7     1
8     9     8     1
9     10    8     1
10    11    10    1
11    12    11    ar
12    13    12    1
13    14    12    ar
14    15    14    1
15    16    14    ar
16    17    16    1
17    18    16    ar
18    19    11    ar
19    19    18    ar
20    20    19    1
21    21    1     ar
22    21    7     ar
23    21    20    1
24    22    6     1
25    23    22    1
26    24    22    1
27    25    22    1
28    26    10    2
29    27    20    1
30    28    27    1
31    29    27    1
32    30    29    1
33    31    29    1
34    32    27    1
35    32    29    1
36    33    32    1
37    34    32    1
@<TRIPOS>SUBSTRUCTURE
1   LIG    1    
 
########## Name        : 1VRT.lig
########## Description : AM1BCC_CHARGES =  -0.0002 ORIGINAL_CHARGES =  -0.0000

@<TRIPOS>MOLECULE
1VRT.lig
34    37    1     0     0    
SMALL
USER_CHARGES
@<TRIPOS>ATOM
1     N1       4.0540  -36.9310   22.2210 N.ar    1  LIG  -0.6650  -0.6200 
2     C1       4.9660  -36.2380   22.9390 C.ar    1  LIG   0.3947   0.1600 
3     H1       6.0082  -36.2811   22.6707 H       1  LIG   0.0281   0.1500 
4     C2       4.6240  -35.4500   24.0360 C.ar    1  LIG  -0.2334  -0.1500 
5     H2       5.3884  -34.9151   24.5740 H       1  LIG   0.1480   0.1500 
6     C3       3.3050  -35.3690   24.4150 C.ar    1  LIG  -0.0698  -0.1435 
7     C4       2.3460  -36.0770   23.6860 C.ar    1  LIG  -0.0398   0.1170 
8     N2       0.9890  -36.0280   24.1030 N.am    1  LIG  -0.4596  -0.5470 
9     H3       0.7643  -35.9928   25.0860 H       1  LIG   0.3311   0.3700 
10    C5      -0.1450  -36.0180   23.4080 C.2     1  LIG   0.7361   0.5438 
11    C6      -0.1190  -36.0770   21.8860 C.ar    1  LIG  -0.2550   0.0862 
12    C7      -1.1230  -35.3990   21.1890 C.ar    1  LIG  -0.0321  -0.1500 
13    H4      -1.7552  -34.6955   21.7041 H       1  LIG   0.1623   0.1500 
14    C8      -1.2960  -35.6300   19.8690 C.ar    1  LIG  -0.2723  -0.1500 
15    H5      -2.0662  -35.1073   19.3273 H       1  LIG   0.1522   0.1500 
16    C9      -0.4670  -36.5450   19.2400 C.ar    1  LIG   0.4373   0.1600 
17    H6      -0.5947  -36.7554   18.1915 H       1  LIG   0.0280   0.1500 
18    N3       0.5220  -37.2120   19.8740 N.ar    1  LIG  -0.6893  -0.6200 
19    C10      0.7040  -36.9790   21.1800 C.ar    1  LIG   0.6480   0.4100 
20    N4       1.7670  -37.6730   21.8260 N.pl3   1  LIG  -0.6924  -0.3690 
21    C11      2.7540  -36.8570   22.5840 C.ar    1  LIG   0.5805   0.4100 
22    C12      2.9040  -34.5090   25.6010 C.3     1  LIG  -0.0620   0.1435 
23    H7       2.2235  -33.7630   25.2820 H       1  LIG   0.0570   0.0000 
24    H8       2.4436  -35.1154   26.3371 H       1  LIG   0.0495   0.0000 
25    H9       3.7654  -34.0491   26.0108 H       1  LIG   0.0519   0.0000 
26    O1      -1.2400  -35.9060   23.9770 O.2     1  LIG  -0.6361  -0.5700 
27    C13      2.3440  -38.7570   21.0360 C.3     1  LIG   0.1354   0.0690 
28    H10      3.1238  -38.3754   20.4296 H       1  LIG   0.0981   0.1000 
29    C14      2.9380  -39.8900   21.8010 C.3     1  LIG  -0.1181  -0.2000 
30    H11      3.8890  -40.1268   21.3997 H       1  LIG   0.0732   0.1000 
31    H12      3.0430  -39.6129   22.8177 H       1  LIG   0.0789   0.1000 
32    C15      1.6390  -40.0610   21.0880 C.3     1  LIG  -0.1196  -0.2000 
33    H13      0.6832  -39.9283   21.5242 H       1  LIG   0.0807   0.1000 
34    H14      1.5292  -40.4423   20.1061 H       1  LIG   0.0733   0.1000 
@<TRIPOS>BOND
1     2     1     ar
2     3     2     1
3     4     2     ar
4     5     4     1
5     6     4     ar
6     7     6     ar
7     8     7     1
8     9     8     1
9     10    8     1
10    11    10    1
11    12    11    ar
12    13    12    1
13    14    12    ar
14    15    14    1
15    16    14    ar
16    17    16    1
17    18    16    ar
18    19    11    ar
19    19    18    ar
20    20    19    1
21    21    1     ar
22    21    7     ar
23    21    20    1
24    22    6     1
25    23    22    1
26    24    22    1
27    25    22    1
28    26    10    2
29    27    20    1
30    28    27    1
31    29    27    1
32    30    29    1
33    31    29    1
34    32    27    1
35    32    29    1
36    33    32    1
37    34    32    1
@<TRIPOS>SUBSTRUCTURE
1   LIG    1    
 
########## Name        : 1VRT.lig
########## Description : AM1BCC_CHARGES =  -0.0002 ORIGINAL_CHARGES =  -0.0000

@<TRIPOS>MOLECULE
1VRT.lig
34    37    1     0     0    
SMALL
USER_CHARGES
@<TRIPOS>ATOM
1     N1       4.0540  -36.9310   22.2210 N.ar    1  LIG  -0.6650  -0.6200 
2     C1       4.9660  -36.2380   22.9390 C.ar    1  LIG   0.3947   0.1600 
3     H1       6.0082  -36.2811   22.6707 H       1  LIG   0.0281   0.1500 
4     C2       4.6240  -35.4500   24.0360 C.ar    1  LIG  -0.2334  -0.1500 
5     H2       5.3884  -34.9151   24.5740 H       1  LIG   0.1480   0.1500 
6     C3       3.3050  -35.3690   24.4150 C.ar    1  LIG  -0.0698  -0.1435 
7     C4       2.3460  -36.0770   23.6860 C.ar    1  LIG  -0.0398   0.1170 
8     N2       0.9890  -36.0280   24.1030 N.am    1  LIG  -0.4596  -0.5470 
9     H3       0.7643  -35.9928   25.0860 H       1  LIG   0.3311   0.3700 
10    C5      -0.1450  -36.0180   23.4080 C.2     1  LIG   0.7361   0.5438 
11    C6      -0.1190  -36.0770   21.8860 C.ar    1  LIG  -0.2550   0.0862 
12    C7      -1.1230  -35.3990   21.1890 C.ar    1  LIG  -0.0321  -0.1500 
13    H4      -1.7552  -34.6955   21.7041 H       1  LIG   0.1623   0.1500 
14    C8      -1.2960  -35.6300   19.8690 C.ar    1  LIG  -0.2723  -0.1500 
15    H5      -2.0662  -35.1073   19.3273 H       1  LIG   0.1522   0.1500 
16    C9      -0.4670  -36.5450   19.2400 C.ar    1  LIG   0.4373   0.1600 
17    H6      -0.5947  -36.7554   18.1915 H       1  LIG   0.0280   0.1500 
18    N3       0.5220  -37.2120   19.8740 N.ar    1  LIG  -0.6893  -0.6200 
19    C10      0.7040  -36.9790   21.1800 C.ar    1  LIG   0.6480   0.4100 
20    N4       1.7670  -37.6730   21.8260 N.pl3   1  LIG  -0.6924  -0.3690 
21    C11      2.7540  -36.8570   22.5840 C.ar    1  LIG   0.5805   0.4100 
22    C12      2.9040  -34.5090   25.6010 C.3     1  LIG  -0.0620   0.1435 
23    H7       2.2235  -33.7630   25.2820 H       1  LIG   0.0570   0.0000 
24    H8       2.4436  -35.1154   26.3371 H       1  LIG   0.0495   0.0000 
25    H9       3.7654  -34.0491   26.0108 H       1  LIG   0.0519   0.0000 
26    O1      -1.2400  -35.9060   23.9770 O.2     1  LIG  -0.6361  -0.5700 
27    C13      2.3440  -38.7570   21.0360 C.3     1  LIG   0.1354   0.0690 
28    H10      3.1238  -38.3754   20.4296 H       1  LIG   0.0981   0.1000 
29    C14      2.9380  -39.8900   21.8010 C.3     1  LIG  -0.1181  -0.2000 
30    H11      3.8890  -40.1268   21.3997 H       1  LIG   0.0732   0.1000 
31    H12      3.0430  -39.6129   22.8177 H       1  LIG   0.0789   0.1000 
32    C15      1.6390  -40.0610   21.0880 C.3     1  LIG  -0.1196  -0.2000 
33    H13      0.6832  -39.9283   21.5242 H       1  LIG   0.0807   0.1000 
34    H14      1.5292  -40.4423   20.1061 H       1  LIG   0.0733   0.1000 
@<TRIPOS>BOND
1     2     1     ar
2     3     2     1
3     4     2     ar
4     5     4     1
5     6     4     ar
6     7     6     ar
7     8     7     1
8     9     8     1
9     10    8     1
10    11    10    1
11    12    11    ar
12    13    12    1
13    14    12    ar
14    15    14    1
15    16    14    ar
16    17    16    1
17    18    16    ar
18    19    11    ar
19    19    18    ar
20    20    19    1
21    21    1     ar
22    21    7     ar
23    21    20    1
24    22    6     1
25    23    22    1
26    24    22    1
27    25    22    1
28    26    10    2
29    27    20    1
30    28    27    1
31    29    27    1
32    30    29    1
33    31    29    1
34    32    27    1
35    32    29    1
36    33    32    1
37    34    32    1
@<TRIPOS>SUBSTRUCTURE
1   LIG    1    
 
########## Name        : 1VRT.lig
########## Description : AM1BCC_CHARGES =  -0.0002 ORIGINAL_CHARGES =  -0.0000

@<TRIPOS>MOLECULE
1VRT.lig
34    37    1     0     0    
SMALL
USER_CHARGES
@<TRIPOS>ATOM
1     N1       4.0540  -36.9310   22.2210 N.ar    1  LIG  -0.6650  -0.6200 
2     C1       4.9660  -36.2380   22.9390 C.ar    1  LIG   0.3947   0.1600 
3     H1       6.0082  -36.2811   22.6707 H       1  LIG   0.0281   0.1500 
4     C2       4.6240  -35.4500   24.0360 C.ar    1  LIG  -0.2334  -0.1500 
5     H2       5.3884  -34.9151   24.5740 H       1  LIG   0.1480   0.1500 
6     C3       3.3050  -35.3690   24.4150 C.ar    1  LIG  -0.0698  -0.1435 
7     C4       2.3460  -36.0770   23.6860 C.ar    1  LIG  -0.0398   0.1170 
8     N2       0.9890  -36.0280   24.1030 N.am    1  LIG  -0.4596  -0.5470 
9     H3       0.7643  -35.9928   25.0860 H       1  LIG   0.3311   0.3700 
10    C5      -0.1450  -36.0180   23.4080 C.2     1  LIG   0.7361   0.5438 
11    C6      -0.1190  -36.0770   21.8860 C.ar    1  LIG  -0.2550   0.0862 
12    C7      -1.1230  -35.3990   21.1890 C.ar    1  LIG  -0.0321  -0.1500 
13    H4      -1.7552  -34.6955   21.7041 H       1  LIG   0.1623   0.1500 
14    C8      -1.2960  -35.6300   19.8690 C.ar    1  LIG  -0.2723  -0.1500 
15    H5      -2.0662  -35.1073   19.3273 H       1  LIG   0.1522   0.1500 
16    C9      -0.4670  -36.5450   19.2400 C.ar    1  LIG   0.4373   0.1600 
17    H6      -0.5947  -36.7554   18.1915 H       1  LIG   0.0280   0.1500 
18    N3       0.5220  -37.2120   19.8740 N.ar    1  LIG  -0.6893  -0.6200 
19    C10      0.7040  -36.9790   21.1800 C.ar    1  LIG   0.6480   0.4100 
20    N4       1.7670  -37.6730   21.8260 N.pl3   1  LIG  -0.6924  -0.3690 
21    C11      2.7540  -36.8570   22.5840 C.ar    1  LIG   0.5805   0.4100 
22    C12      2.9040  -34.5090   25.6010 C.3     1  LIG  -0.0620   0.1435 
23    H7       2.2235  -33.7630   25.2820 H       1  LIG   0.0570   0.0000 
24    H8       2.4436  -35.1154   26.3371 H       1  LIG   0.0495   0.0000 
25    H9       3.7654  -34.0491   26.0108 H       1  LIG   0.0519   0.0000 
26    O1      -1.2400  -35.9060   23.9770 O.2     1  LIG  -0.6361  -0.5700 
27    C13      2.3440  -38.7570   21.0360 C.3     1  LIG   0.1354   0.0690 
28    H10      3.1238  -38.3754   20.4296 H       1  LIG   0.0981   0.1000 
29    C14      2.9380  -39.8900   21.8010 C.3     1  LIG  -0.1181  -0.2000 
30    H11      3.8890  -40.1268   21.3997 H       1  LIG   0.0732   0.1000 
31    H12      3.0430  -39.6129   22.8177 H       1  LIG   0.0789   0.1000 
32    C15      1.6390  -40.0610   21.0880 C.3     1  LIG  -0.1196  -0.2000 
33    H13      0.6832  -39.9283   21.5242 H       1  LIG   0.0807   0.1000 
34    H14      1.5292  -40.4423   20.1061 H       1  LIG   0.0733   0.1000 
@<TRIPOS>BOND
1     2     1     ar
2     3     2     1
3     4     2     ar
4     5     4     1
5     6     4     ar
6     7     6     ar
7     8     7     1
8     9     8     1
9     10    8     1
10    11    10    1
11    12    11    ar
12    13    12    1
13    14    12    ar
14    15    14    1
15    16    14    ar
16    17    16    1
17    18    16    ar
18    19    11    ar
19    19    18    ar
20    20    19    1
21    21    1     ar
22    21    7     ar
23    21    20    1
24    22    6     1
25    23    22    1
26    24    22    1
27    25    22    1
28    26    10    2
29    27    20    1
30    28    27    1
31    29    27    1
32    30    29    1
33    31    29    1
34    32    27    1
35    32    29    1
36    33    32    1
37    34    32    1
@<TRIPOS>SUBSTRUCTURE
1   LIG    1    
 
########## Name        : 1VRT.lig
########## Description : AM1BCC_CHARGES =  -0.0002 ORIGINAL_CHARGES =  -0.0000

@<TRIPOS>MOLECULE
1VRT.lig
34    37    1     0     0    
SMALL
USER_CHARGES
@<TRIPOS>ATOM
1     N1       4.0540  -36.9310   22.2210 N.ar    1  LIG  -0.6650  -0.6200 
2     C1       4.9660  -36.2380   22.9390 C.ar    1  LIG   0.3947   0.1600 
3     H1       6.0082  -36.2811   22.6707 H       1  LIG   0.0281   0.1500 
4     C2       4.6240  -35.4500   24.0360 C.ar    1  LIG  -0.2334  -0.1500 
5     H2       5.3884  -34.9151   24.5740 H       1  LIG   0.1480   0.1500 
6     C3       3.3050  -35.3690   24.4150 C.ar    1  LIG  -0.0698  -0.1435 
7     C4       2.3460  -36.0770   23.6860 C.ar    1  LIG  -0.0398   0.1170 
8     N2       0.9890  -36.0280   24.1030 N.am    1  LIG  -0.4596  -0.5470 
9     H3       0.7643  -35.9928   25.0860 H       1  LIG   0.3311   0.3700 
10    C5      -0.1450  -36.0180   23.4080 C.2     1  LIG   0.7361   0.5438 
11    C6      -0.1190  -36.0770   21.8860 C.ar    1  LIG  -0.2550   0.0862 
12    C7      -1.1230  -35.3990   21.1890 C.ar    1  LIG  -0.0321  -0.1500 
13    H4      -1.7552  -34.6955   21.7041 H       1  LIG   0.1623   0.1500 
14    C8      -1.2960  -35.6300   19.8690 C.ar    1  LIG  -0.2723  -0.1500 
15    H5      -2.0662  -35.1073   19.3273 H       1  LIG   0.1522   0.1500 
16    C9      -0.4670  -36.5450   19.2400 C.ar    1  LIG   0.4373   0.1600 
17    H6      -0.5947  -36.7554   18.1915 H       1  LIG   0.0280   0.1500 
18    N3       0.5220  -37.2120   19.8740 N.ar    1  LIG  -0.6893  -0.6200 
19    C10      0.7040  -36.9790   21.1800 C.ar    1  LIG   0.6480   0.4100 
20    N4       1.7670  -37.6730   21.8260 N.pl3   1  LIG  -0.6924  -0.3690 
21    C11      2.7540  -36.8570   22.5840 C.ar    1  LIG   0.5805   0.4100 
22    C12      2.9040  -34.5090   25.6010 C.3     1  LIG  -0.0620   0.1435 
23    H7       2.2235  -33.7630   25.2820 H       1  LIG   0.0570   0.0000 
24    H8       2.4436  -35.1154   26.3371 H       1  LIG   0.0495   0.0000 
25    H9       3.7654  -34.0491   26.0108 H       1  LIG   0.0519   0.0000 
26    O1      -1.2400  -35.9060   23.9770 O.2     1  LIG  -0.6361  -0.5700 
27    C13      2.3440  -38.7570   21.0360 C.3     1  LIG   0.1354   0.0690 
28    H10      3.1238  -38.3754   20.4296 H       1  LIG   0.0981   0.1000 
29    C14      2.9380  -39.8900   21.8010 C.3     1  LIG  -0.1181  -0.2000 
30    H11      3.8890  -40.1268   21.3997 H       1  LIG   0.0732   0.1000 
31    H12      3.0430  -39.6129   22.8177 H       1  LIG   0.0789   0.1000 
32    C15      1.6390  -40.0610   21.0880 C.3     1  LIG  -0.1196  -0.2000 
33    H13      0.6832  -39.9283   21.5242 H       1  LIG   0.0807   0.1000 
34    H14      1.5292  -40.4423   20.1061 H       1  LIG   0.0733   0.1000 
@<TRIPOS>BOND
1     2     1     ar
2     3     2     1
3     4     2     ar
4     5     4     1
5     6     4     ar
6     7     6     ar
7     8     7     1
8     9     8     1
9     10    8     1
10    11    10    1
11    12    11    ar
12    13    12    1
13    14    12    ar
14    15    14    1
15    16    14    ar
16    17    16    1
17    18    16    ar
18    19    11    ar
19    19    18    ar
20    20    19    1
21    21    1     ar
22    21    7     ar
23    21    20    1
24    22    6     1
25    23    22    1
26    24    22    1
27    25    22    1
28    26    10    2
29    27    20    1
30    28    27    1
31    29    27    1
32    30    29    1
33    31    29    1
34    32    27    1
35    32    29    1
36    33    32    1
37    34    32    1
@<TRIPOS>SUBSTRUCTURE
1   LIG    1    
 
########## Name        : 1VRT.lig
########## Description : AM1BCC_CHARGES =  -0.0002 ORIGINAL_CHARGES =  -0.0000

@<TRIPOS>MOLECULE
1VRT.lig
34    37    1     0     0    
SMALL
USER_CHARGES
@<TRIPOS>ATOM
1     N1       4.0540  -36.9310   22.2210 N.ar    1  LIG  -0.6650  -0.6200 
2     C1       4.9660  -36.2380   22.9390 C.ar    1  LIG   0.3947   0.1600 
3     H1       6.0082  -36.2811   22.6707 H       1  LIG   0.0281   0.1500 
4     C2       4.6240  -35.4500   24.0360 C.ar    1  LIG  -0.2334  -0.1500 
5     H2       5.3884  -34.9151   24.5740 H       1  LIG   0.1480   0.1500 
6     C3       3.3050  -35.3690   24.4150 C.ar    1  LIG  -0.0698  -0.1435 
7     C4       2.3460  -36.0770   23.6860 C.ar    1  LIG  -0.0398   0.1170 
8     N2       0.9890  -36.0280   24.1030 N.am    1  LIG  -0.4596  -0.5470 
9     H3       0.7643  -35.9928   25.0860 H       1  LIG   0.3311   0.3700 
10    C5      -0.1450  -36.0180   23.4080 C.2     1  LIG   0.7361   0.5438 
11    C6      -0.1190  -36.0770   21.8860 C.ar    1  LIG  -0.2550   0.0862 
12    C7      -1.1230  -35.3990   21.1890 C.ar    1  LIG  -0.0321  -0.1500 
13    H4      -1.7552  -34.6955   21.7041 H       1  LIG   0.1623   0.1500 
14    C8      -1.2960  -35.6300   19.8690 C.ar    1  LIG  -0.2723  -0.1500 
15    H5      -2.0662  -35.1073   19.3273 H       1  LIG   0.1522   0.1500 
16    C9      -0.4670  -36.5450   19.2400 C.ar    1  LIG   0.4373   0.1600 
17    H6      -0.5947  -36.7554   18.1915 H       1  LIG   0.0280   0.1500 
18    N3       0.5220  -37.2120   19.8740 N.ar    1  LIG  -0.6893  -0.6200 
19    C10      0.7040  -36.9790   21.1800 C.ar    1  LIG   0.6480   0.4100 
20    N4       1.7670  -37.6730   21.8260 N.pl3   1  LIG  -0.6924  -0.3690 
21    C11      2.7540  -36.8570   22.5840 C.ar    1  LIG   0.5805   0.4100 
22    C12      2.9040  -34.5090   25.6010 C.3     1  LIG  -0.0620   0.1435 
23    H7       2.2235  -33.7630   25.2820 H       1  LIG   0.0570   0.0000 
24    H8       2.4436  -35.1154   26.3371 H       1  LIG   0.0495   0.0000 
25    H9       3.7654  -34.0491   26.0108 H       1  LIG   0.0519   0.0000 
26    O1      -1.2400  -35.9060   23.9770 O.2     1  LIG  -0.6361  -0.5700 
27    C13      2.3440  -38.7570   21.0360 C.3     1  LIG   0.1354   0.0690 
28    H10      3.1238  -38.3754   20.4296 H       1  LIG   0.0981   0.1000 
29    C14      2.9380  -39.8900   21.8010 C.3     1  LIG  -0.1181  -0.2000 
30    H11      3.8890  -40.1268   21.3997 H       1  LIG   0.0732   0.1000 
31    H12      3.0430  -39.6129   22.8177 H       1  LIG   0.0789   0.1000 
32    C15      1.6390  -40.0610   21.0880 C.3     1  LIG  -0.1196  -0.2000 
33    H13      0.6832  -39.9283   21.5242 H       1  LIG   0.0807   0.1000 
34    H14      1.5292  -40.4423   20.1061 H       1  LIG   0.0733   0.1000 
@<TRIPOS>BOND
1     2     1     ar
2     3     2     1
3     4     2     ar
4     5     4     1
5     6     4     ar
6     7     6     ar
7     8     7     1
8     9     8     1
9     10    8     1
10    11    10    1
11    12    11    ar
12    13    12    1
13    14    12    ar
14    15    14    1
15    16    14    ar
16    17    16    1
17    18    16    ar
18    19    11    ar
19    19    18    ar
20    20    19    1
21    21    1     ar
22    21    7     ar
23    21    20    1
24    22    6     1
25    23    22    1
26    24    22    1
27    25    22    1
28    26    10    2
29    27    20    1
30    28    27    1
31    29    27    1
32    30    29    1
33    31    29    1
34    32    27    1
35    32    29    1
36    33    32    1
37    34    32    1
@<TRIPOS>SUBSTRUCTURE
1   LIG    1    
 
########## Name        : 1VRT.lig
########## Description : AM1BCC_CHARGES =  -0.0002 ORIGINAL_CHARGES =  -0.0000

@<TRIPOS>MOLECULE
1VRT.lig
34    37    1     0     0    
SMALL
USER_CHARGES
@<TRIPOS>ATOM
1     N1       4.0540  -36.9310   22.2210 N.ar    1  LIG  -0.6650  -0.6200 
2     C1       4.9660  -36.2380   22.9390 C.ar    1  LIG   0.3947   0.1600 
3     H1       6.0082  -36.2811   22.6707 H       1  LIG   0.0281   0.1500 
4     C2       4.6240  -35.4500   24.0360 C.ar    1  LIG  -0.2334  -0.1500 
5     H2       5.3884  -34.9151   24.5740 H       1  LIG   0.1480   0.1500 
6     C3       3.3050  -35.3690   24.4150 C.ar    1  LIG  -0.0698  -0.1435 
7     C4       2.3460  -36.0770   23.6860 C.ar    1  LIG  -0.0398   0.1170 
8     N2       0.9890  -36.0280   24.1030 N.am    1  LIG  -0.4596  -0.5470 
9     H3       0.7643  -35.9928   25.0860 H       1  LIG   0.3311   0.3700 
10    C5      -0.1450  -36.0180   23.4080 C.2     1  LIG   0.7361   0.5438 
11    C6      -0.1190  -36.0770   21.8860 C.ar    1  LIG  -0.2550   0.0862 
12    C7      -1.1230  -35.3990   21.1890 C.ar    1  LIG  -0.0321  -0.1500 
13    H4      -1.7552  -34.6955   21.7041 H       1  LIG   0.1623   0.1500 
14    C8      -1.2960  -35.6300   19.8690 C.ar    1  LIG  -0.2723  -0.1500 
15    H5      -2.0662  -35.1073   19.3273 H       1  LIG   0.1522   0.1500 
16    C9      -0.4670  -36.5450   19.2400 C.ar    1  LIG   0.4373   0.1600 
17    H6      -0.5947  -36.7554   18.1915 H       1  LIG   0.0280   0.1500 
18    N3       0.5220  -37.2120   19.8740 N.ar    1  LIG  -0.6893  -0.6200 
19    C10      0.7040  -36.9790   21.1800 C.ar    1  LIG   0.6480   0.4100 
20    N4       1.7670  -37.6730   21.8260 N.pl3   1  LIG  -0.6924  -0.3690 
21    C11      2.7540  -36.8570   22.5840 C.ar    1  LIG   0.5805   0.4100 
22    C12      2.9040  -34.5090   25.6010 C.3     1  LIG  -0.0620   0.1435 
23    H7       2.2235  -33.7630   25.2820 H       1  LIG   0.0570   0.0000 
24    H8       2.4436  -35.1154   26.3371 H       1  LIG   0.0495   0.0000 
25    H9       3.7654  -34.0491   26.0108 H       1  LIG   0.0519   0.0000 
26    O1      -1.2400  -35.9060   23.9770 O.2     1  LIG  -0.6361  -0.5700 
27    C13      2.3440  -38.7570   21.0360 C.3     1  LIG   0.1354   0.0690 
28    H10      3.1238  -38.3754   20.4296 H       1  LIG   0.0981   0.1000 
29    C14      2.9380  -39.8900   21.8010 C.3     1  LIG  -0.1181  -0.2000 
30    H11      3.8890  -40.1268   21.3997 H       1  LIG   0.0732   0.1000 
31    H12      3.0430  -39.6129   22.8177 H       1  LIG   0.0789   0.1000 
32    C15      1.6390  -40.0610   21.0880 C.3     1  LIG  -0.1196  -0.2000 
33    H13      0.6832  -39.9283   21.5242 H       1  LIG   0.0807   0.1000 
34    H14      1.5292  -40.4423   20.1061 H       1  LIG   0.0733   0.1000 
@<TRIPOS>BOND
1     2     1     ar
2     3     2     1
3     4     2     ar
4     5     4     1
5     6     4     ar
6     7     6     ar
7     8     7     1
8     9     8     1
9     10    8     1
10    11    10    1
11    12    11    ar
12    13    12    1
13    14    12    ar
14    15    14    1
15    16    14    ar
16    17    16    1
17    18    16    ar
18    19    11    ar
19    19    18    ar
20    20    19    1
21    21    1     ar
22    21    7     ar
23    21    20    1
24    22    6     1
25    23    22    1
26    24    22    1
27    25    22    1
28    26    10    2
29    27    20    1
30    28    27    1
31    29    27    1
32    30    29    1
33    31    29    1
34    32    27    1
35    32    29    1
36    33    32    1
37    34    32    1
@<TRIPOS>SUBSTRUCTURE
1   LIG    1    
 
########## Name        : 1VRT.lig
########## Description : AM1BCC_CHARGES =  -0.0002 ORIGINAL_CHARGES =  -0.0000

@<TRIPOS>MOLECULE
1VRT.lig
34    37    1     0     0    
SMALL
USER_CHARGES
@<TRIPOS>ATOM
1     N1       4.0540  -36.9310   22.2210 N.ar    1  LIG  -0.6650  -0.6200 
2     C1       4.9660  -36.2380   22.9390 C.ar    1  LIG   0.3947   0.1600 
3     H1       6.0082  -36.2811   22.6707 H       1  LIG   0.0281   0.1500 
4     C2       4.6240  -35.4500   24.0360 C.ar    1  LIG  -0.2334  -0.1500 
5     H2       5.3884  -34.9151   24.5740 H       1  LIG   0.1480   0.1500 
6     C3       3.3050  -35.3690   24.4150 C.ar    1  LIG  -0.0698  -0.1435 
7     C4       2.3460  -36.0770   23.6860 C.ar    1  LIG  -0.0398   0.1170 
8     N2       0.9890  -36.0280   24.1030 N.am    1  LIG  -0.4596  -0.5470 
9     H3       0.7643  -35.9928   25.0860 H       1  LIG   0.3311   0.3700 
10    C5      -0.1450  -36.0180   23.4080 C.2     1  LIG   0.7361   0.5438 
11    C6      -0.1190  -36.0770   21.8860 C.ar    1  LIG  -0.2550   0.0862 
12    C7      -1.1230  -35.3990   21.1890 C.ar    1  LIG  -0.0321  -0.1500 
13    H4      -1.7552  -34.6955   21.7041 H       1  LIG   0.1623   0.1500 
14    C8      -1.2960  -35.6300   19.8690 C.ar    1  LIG  -0.2723  -0.1500 
15    H5      -2.0662  -35.1073   19.3273 H       1  LIG   0.1522   0.1500 
16    C9      -0.4670  -36.5450   19.2400 C.ar    1  LIG   0.4373   0.1600 
17    H6      -0.5947  -36.7554   18.1915 H       1  LIG   0.0280   0.1500 
18    N3       0.5220  -37.2120   19.8740 N.ar    1  LIG  -0.6893  -0.6200 
19    C10      0.7040  -36.9790   21.1800 C.ar    1  LIG   0.6480   0.4100 
20    N4       1.7670  -37.6730   21.8260 N.pl3   1  LIG  -0.6924  -0.3690 
21    C11      2.7540  -36.8570   22.5840 C.ar    1  LIG   0.5805   0.4100 
22    C12      2.9040  -34.5090   25.6010 C.3     1  LIG  -0.0620   0.1435 
23    H7       2.2235  -33.7630   25.2820 H       1  LIG   0.0570   0.0000 
24    H8       2.4436  -35.1154   26.3371 H       1  LIG   0.0495   0.0000 
25    H9       3.7654  -34.0491   26.0108 H       1  LIG   0.0519   0.0000 
26    O1      -1.2400  -35.9060   23.9770 O.2     1  LIG  -0.6361  -0.5700 
27    C13      2.3440  -38.7570   21.0360 C.3     1  LIG   0.1354   0.0690 
28    H10      3.1238  -38.3754   20.4296 H       1  LIG   0.0981   0.1000 
29    C14      2.9380  -39.8900   21.8010 C.3     1  LIG  -0.1181  -0.2000 
30    H11      3.8890  -40.1268   21.3997 H       1  LIG   0.0732   0.1000 
31    H12      3.0430  -39.6129   22.8177 H       1  LIG   0.0789   0.1000 
32    C15      1.6390  -40.0610   21.0880 C.3     1  LIG  -0.1196  -0.2000 
33    H13      0.6832  -39.9283   21.5242 H       1  LIG   0.0807   0.1000 
34    H14      1.5292  -40.4423   20.1061 H       1  LIG   0.0733   0.1000 
@<TRIPOS>BOND
1     2     1     ar
2     3     2     1
3     4     2     ar
4     5     4     1
5     6     4     ar
6     7     6     ar
7     8     7     1
8     9     8     1
9     10    8     1
10    11    10    1
11    12    11    ar
12    13    12    1
13    14    12    ar
14    15    14    1
15    16    14    ar
16    17    16    1
17    18    16    ar
18    19    11    ar
19    19    18    ar
20    20    19    1
21    21    1     ar
22    21    7     ar
23    21    20    1
24    22    6     1
25    23    22    1
26    24    22    1
27    25    22    1
28    26    10    2
29    27    20    1
30    28    27    1
31    29    27    1
32    30    29    1
33    31    29    1
34    32    27    1
35    32    29    1
36    33    32    1
37    34    32    1
@<TRIPOS>SUBSTRUCTURE
1   LIG    1    
 
########## Name        : 1VRT.lig
########## Description : AM1BCC_CHARGES =  -0.0002 ORIGINAL_CHARGES =  -0.0000

@<TRIPOS>MOLECULE
1VRT.lig
34    37    1     0     0    
SMALL
USER_CHARGES
@<TRIPOS>ATOM
1     N1       4.0540  -36.9310   22.2210 N.ar    1  LIG  -0.6650  -0.6200 
2     C1       4.9660  -36.2380   22.9390 C.ar    1  LIG   0.3947   0.1600 
3     H1       6.0082  -36.2811   22.6707 H       1  LIG   0.0281   0.1500 
4     C2       4.6240  -35.4500   24.0360 C.ar    1  LIG  -0.2334  -0.1500 
5     H2       5.3884  -34.9151   24.5740 H       1  LIG   0.1480   0.1500 
6     C3       3.3050  -35.3690   24.4150 C.ar    1  LIG  -0.0698  -0.1435 
7     C4       2.3460  -36.0770   23.6860 C.ar    1  LIG  -0.0398   0.1170 
8     N2       0.9890  -36.0280   24.1030 N.am    1  LIG  -0.4596  -0.5470 
9     H3       0.7643  -35.9928   25.0860 H       1  LIG   0.3311   0.3700 
10    C5      -0.1450  -36.0180   23.4080 C.2     1  LIG   0.7361   0.5438 
11    C6      -0.1190  -36.0770   21.8860 C.ar    1  LIG  -0.2550   0.0862 
12    C7      -1.1230  -35.3990   21.1890 C.ar    1  LIG  -0.0321  -0.1500 
13    H4      -1.7552  -34.6955   21.7041 H       1  LIG   0.1623   0.1500 
14    C8      -1.2960  -35.6300   19.8690 C.ar    1  LIG  -0.2723  -0.1500 
15    H5      -2.0662  -35.1073   19.3273 H       1  LIG   0.1522   0.1500 
16    C9      -0.4670  -36.5450   19.2400 C.ar    1  LIG   0.4373   0.1600 
17    H6      -0.5947  -36.7554   18.1915 H       1  LIG   0.0280   0.1500 
18    N3       0.5220  -37.2120   19.8740 N.ar    1  LIG  -0.6893  -0.6200 
19    C10      0.7040  -36.9790   21.1800 C.ar    1  LIG   0.6480   0.4100 
20    N4       1.7670  -37.6730   21.8260 N.pl3   1  LIG  -0.6924  -0.3690 
21    C11      2.7540  -36.8570   22.5840 C.ar    1  LIG   0.5805   0.4100 
22    C12      2.9040  -34.5090   25.6010 C.3     1  LIG  -0.0620   0.1435 
23    H7       2.2235  -33.7630   25.2820 H       1  LIG   0.0570   0.0000 
24    H8       2.4436  -35.1154   26.3371 H       1  LIG   0.0495   0.0000 
25    H9       3.7654  -34.0491   26.0108 H       1  LIG   0.0519   0.0000 
26    O1      -1.2400  -35.9060   23.9770 O.2     1  LIG  -0.6361  -0.5700 
27    C13      2.3440  -38.7570   21.0360 C.3     1  LIG   0.1354   0.0690 
28    H10      3.1238  -38.3754   20.4296 H       1  LIG   0.0981   0.1000 
29    C14      2.9380  -39.8900   21.8010 C.3     1  LIG  -0.1181  -0.2000 
30    H11      3.8890  -40.1268   21.3997 H       1  LIG   0.0732   0.1000 
31    H12      3.0430  -39.6129   22.8177 H       1  LIG   0.0789   0.1000 
32    C15      1.6390  -40.0610   21.0880 C.3     1  LIG  -0.1196  -0.2000 
33    H13      0.6832  -39.9283   21.5242 H       1  LIG   0.0807   0.1000 
34    H14      1.5292  -40.4423   20.1061 H       1  LIG   0.0733   0.1000 
@<TRIPOS>BOND
1     2     1     ar
2     3     2     1
3     4     2     ar
4     5     4     1
5     6     4     ar
6     7     6     ar
7     8     7     1
8     9     8     1
9     10    8     1
10    11    10    1
11    12    11    ar
12    13    12    1
13    14    12    ar
14    15    14    1
15    16    14    ar
16    17    16    1
17    18    16    ar
18    19    11    ar
19    19    18    ar
20    20    19    1
21    21    1     ar
22    21    7     ar
23    21    20    1
24    22    6     1
25    23    22    1
26    24    22    1
27    25    22    1
28    26    10    2
29    27    20    1
30    28    27    1
31    29    27    1
32    30    29    1
33    31    29    1
34    32    27    1
35    32    29    1
36    33    32    1
37    34    32    1
@<TRIPOS>SUBSTRUCTURE
1   LIG    1    
 
########## Name        : 1VRT.lig
########## Description : AM1BCC_CHARGES =  -0.0002 ORIGINAL_CHARGES =  -0.0000

@<TRIPOS>MOLECULE
1VRT.lig
34    37    1     0     0    
SMALL
USER_CHARGES
@<TRIPOS>ATOM
1     N1       4.0540  -36.9310   22.2210 N.ar    1  LIG  -0.6650  -0.6200 
2     C1       4.9660  -36.2380   22.9390 C.ar    1  LIG   0.3947   0.1600 
3     H1       6.0082  -36.2811   22.6707 H       1  LIG   0.0281   0.1500 
4     C2       4.6240  -35.4500   24.0360 C.ar    1  LIG  -0.2334  -0.1500 
5     H2       5.3884  -34.9151   24.5740 H       1  LIG   0.1480   0.1500 
6     C3       3.3050  -35.3690   24.4150 C.ar    1  LIG  -0.0698  -0.1435 
7     C4       2.3460  -36.0770   23.6860 C.ar    1  LIG  -0.0398   0.1170 
8     N2       0.9890  -36.0280   24.1030 N.am    1  LIG  -0.4596  -0.5470 
9     H3       0.7643  -35.9928   25.0860 H       1  LIG   0.3311   0.3700 
10    C5      -0.1450  -36.0180   23.4080 C.2     1  LIG   0.7361   0.5438 
11    C6      -0.1190  -36.0770   21.8860 C.ar    1  LIG  -0.2550   0.0862 
12    C7      -1.1230  -35.3990   21.1890 C.ar    1  LIG  -0.0321  -0.1500 
13    H4      -1.7552  -34.6955   21.7041 H       1  LIG   0.1623   0.1500 
14    C8      -1.2960  -35.6300   19.8690 C.ar    1  LIG  -0.2723  -0.1500 
15    H5      -2.0662  -35.1073   19.3273 H       1  LIG   0.1522   0.1500 
16    C9      -0.4670  -36.5450   19.2400 C.ar    1  LIG   0.4373   0.1600 
17    H6      -0.5947  -36.7554   18.1915 H       1  LIG   0.0280   0.1500 
18    N3       0.5220  -37.2120   19.8740 N.ar    1  LIG  -0.6893  -0.6200 
19    C10      0.7040  -36.9790   21.1800 C.ar    1  LIG   0.6480   0.4100 
20    N4       1.7670  -37.6730   21.8260 N.pl3   1  LIG  -0.6924  -0.3690 
21    C11      2.7540  -36.8570   22.5840 C.ar    1  LIG   0.5805   0.4100 
22    C12      2.9040  -34.5090   25.6010 C.3     1  LIG  -0.0620   0.1435 
23    H7       2.2235  -33.7630   25.2820 H       1  LIG   0.0570   0.0000 
24    H8       2.4436  -35.1154   26.3371 H       1  LIG   0.0495   0.0000 
25    H9       3.7654  -34.0491   26.0108 H       1  LIG   0.0519   0.0000 
26    O1      -1.2400  -35.9060   23.9770 O.2     1  LIG  -0.6361  -0.5700 
27    C13      2.3440  -38.7570   21.0360 C.3     1  LIG   0.1354   0.0690 
28    H10      3.1238  -38.3754   20.4296 H       1  LIG   0.0981   0.1000 
29    C14      2.9380  -39.8900   21.8010 C.3     1  LIG  -0.1181  -0.2000 
30    H11      3.8890  -40.1268   21.3997 H       1  LIG   0.0732   0.1000 
31    H12      3.0430  -39.6129   22.8177 H       1  LIG   0.0789   0.1000 
32    C15      1.6390  -40.0610   21.0880 C.3     1  LIG  -0.1196  -0.2000 
33    H13      0.6832  -39.9283   21.5242 H       1  LIG   0.0807   0.1000 
34    H14      1.5292  -40.4423   20.1061 H       1  LIG   0.0733   0.1000 
@<TRIPOS>BOND
1     2     1     ar
2     3     2     1
3     4     2     ar
4     5     4     1
5     6     4     ar
6     7     6     ar
7     8     7     1
8     9     8     1
9     10    8     1
10    11    10    1
11    12    11    ar
12    13    12    1
13    14    12    ar
14    15    14    1
15    16    14    ar
16    17    16    1
17    18    16    ar
18    19    11    ar
19    19    18    ar
20    20    19    1
21    21    1     ar
22    21    7     ar
23    21    20    1
24    22    6     1
25    23    22    1
26    24    22    1
27    25    22    1
28    26    10    2
29    27    20    1
30    28    27    1
31    29    27    1
32    30    29    1
33    31    29    1
34    32    27    1
35    32    29    1
36    33    32    1
37    34    32    1
@<TRIPOS>SUBSTRUCTURE
1   LIG    1    
 
########## Name        : 1VRT.lig
########## Description : AM1BCC_CHARGES =  -0.0002 ORIGINAL_CHARGES =  -0.0000

@<TRIPOS>MOLECULE
1VRT.lig
34    37    1     0     0    
SMALL
USER_CHARGES
@<TRIPOS>ATOM
1     N1       4.0540  -36.9310   22.2210 N.ar    1  LIG  -0.6650  -0.6200 
2     C1       4.9660  -36.2380   22.9390 C.ar    1  LIG   0.3947   0.1600 
3     H1       6.0082  -36.2811   22.6707 H       1  LIG   0.0281   0.1500 
4     C2       4.6240  -35.4500   24.0360 C.ar    1  LIG  -0.2334  -0.1500 
5     H2       5.3884  -34.9151   24.5740 H       1  LIG   0.1480   0.1500 
6     C3       3.3050  -35.3690   24.4150 C.ar    1  LIG  -0.0698  -0.1435 
7     C4       2.3460  -36.0770   23.6860 C.ar    1  LIG  -0.0398   0.1170 
8     N2       0.9890  -36.0280   24.1030 N.am    1  LIG  -0.4596  -0.5470 
9     H3       0.7643  -35.9928   25.0860 H       1  LIG   0.3311   0.3700 
10    C5      -0.1450  -36.0180   23.4080 C.2     1  LIG   0.7361   0.5438 
11    C6      -0.1190  -36.0770   21.8860 C.ar    1  LIG  -0.2550   0.0862 
12    C7      -1.1230  -35.3990   21.1890 C.ar    1  LIG  -0.0321  -0.1500 
13    H4      -1.7552  -34.6955   21.7041 H       1  LIG   0.1623   0.1500 
14    C8      -1.2960  -35.6300   19.8690 C.ar    1  LIG  -0.2723  -0.1500 
15    H5      -2.0662  -35.1073   19.3273 H       1  LIG   0.1522   0.1500 
16    C9      -0.4670  -36.5450   19.2400 C.ar    1  LIG   0.4373   0.1600 
17    H6      -0.5947  -36.7554   18.1915 H       1  LIG   0.0280   0.1500 
18    N3       0.5220  -37.2120   19.8740 N.ar    1  LIG  -0.6893  -0.6200 
19    C10      0.7040  -36.9790   21.1800 C.ar    1  LIG   0.6480   0.4100 
20    N4       1.7670  -37.6730   21.8260 N.pl3   1  LIG  -0.6924  -0.3690 
21    C11      2.7540  -36.8570   22.5840 C.ar    1  LIG   0.5805   0.4100 
22    C12      2.9040  -34.5090   25.6010 C.3     1  LIG  -0.0620   0.1435 
23    H7       2.2235  -33.7630   25.2820 H       1  LIG   0.0570   0.0000 
24    H8       2.4436  -35.1154   26.3371 H       1  LIG   0.0495   0.0000 
25    H9       3.7654  -34.0491   26.0108 H       1  LIG   0.0519   0.0000 
26    O1      -1.2400  -35.9060   23.9770 O.2     1  LIG  -0.6361  -0.5700 
27    C13      2.3440  -38.7570   21.0360 C.3     1  LIG   0.1354   0.0690 
28    H10      3.1238  -38.3754   20.4296 H       1  LIG   0.0981   0.1000 
29    C14      2.9380  -39.8900   21.8010 C.3     1  LIG  -0.1181  -0.2000 
30    H11      3.8890  -40.1268   21.3997 H       1  LIG   0.0732   0.1000 
31    H12      3.0430  -39.6129   22.8177 H       1  LIG   0.0789   0.1000 
32    C15      1.6390  -40.0610   21.0880 C.3     1  LIG  -0.1196  -0.2000 
33    H13      0.6832  -39.9283   21.5242 H       1  LIG   0.0807   0.1000 
34    H14      1.5292  -40.4423   20.1061 H       1  LIG   0.0733   0.1000 
@<TRIPOS>BOND
1     2     1     ar
2     3     2     1
3     4     2     ar
4     5     4     1
5     6     4     ar
6     7     6     ar
7     8     7     1
8     9     8     1
9     10    8     1
10    11    10    1
11    12    11    ar
12    13    12    1
13    14    12    ar
14    15    14    1
15    16    14    ar
16    17    16    1
17    18    16    ar
18    19    11    ar
19    19    18    ar
20    20    19    1
21    21    1     ar
22    21    7     ar
23    21    20    1
24    22    6     1
25    23    22    1
26    24    22    1
27    25    22    1
28    26    10    2
29    27    20    1
30    28    27    1
31    29    27    1
32    30    29    1
33    31    29    1
34    32    27    1
35    32    29    1
36    33    32    1
37    34    32    1
@<TRIPOS>SUBSTRUCTURE
1   LIG    1    
 
########## Name        : 1VRT.lig
########## Description : AM1BCC_CHARGES =  -0.0002 ORIGINAL_CHARGES =  -0.0000

@<TRIPOS>MOLECULE
1VRT.lig
34    37    1     0     0    
SMALL
USER_CHARGES
@<TRIPOS>ATOM
1     N1       4.0540  -36.9310   22.2210 N.ar    1  LIG  -0.6650  -0.6200 
2     C1       4.9660  -36.2380   22.9390 C.ar    1  LIG   0.3947   0.1600 
3     H1       6.0082  -36.2811   22.6707 H       1  LIG   0.0281   0.1500 
4     C2       4.6240  -35.4500   24.0360 C.ar    1  LIG  -0.2334  -0.1500 
5     H2       5.3884  -34.9151   24.5740 H       1  LIG   0.1480   0.1500 
6     C3       3.3050  -35.3690   24.4150 C.ar    1  LIG  -0.0698  -0.1435 
7     C4       2.3460  -36.0770   23.6860 C.ar    1  LIG  -0.0398   0.1170 
8     N2       0.9890  -36.0280   24.1030 N.am    1  LIG  -0.4596  -0.5470 
9     H3       0.7643  -35.9928   25.0860 H       1  LIG   0.3311   0.3700 
10    C5      -0.1450  -36.0180   23.4080 C.2     1  LIG   0.7361   0.5438 
11    C6      -0.1190  -36.0770   21.8860 C.ar    1  LIG  -0.2550   0.0862 
12    C7      -1.1230  -35.3990   21.1890 C.ar    1  LIG  -0.0321  -0.1500 
13    H4      -1.7552  -34.6955   21.7041 H       1  LIG   0.1623   0.1500 
14    C8      -1.2960  -35.6300   19.8690 C.ar    1  LIG  -0.2723  -0.1500 
15    H5      -2.0662  -35.1073   19.3273 H       1  LIG   0.1522   0.1500 
16    C9      -0.4670  -36.5450   19.2400 C.ar    1  LIG   0.4373   0.1600 
17    H6      -0.5947  -36.7554   18.1915 H       1  LIG   0.0280   0.1500 
18    N3       0.5220  -37.2120   19.8740 N.ar    1  LIG  -0.6893  -0.6200 
19    C10      0.7040  -36.9790   21.1800 C.ar    1  LIG   0.6480   0.4100 
20    N4       1.7670  -37.6730   21.8260 N.pl3   1  LIG  -0.6924  -0.3690 
21    C11      2.7540  -36.8570   22.5840 C.ar    1  LIG   0.5805   0.4100 
22    C12      2.9040  -34.5090   25.6010 C.3     1  LIG  -0.0620   0.1435 
23    H7       2.2235  -33.7630   25.2820 H       1  LIG   0.0570   0.0000 
24    H8       2.4436  -35.1154   26.3371 H       1  LIG   0.0495   0.0000 
25    H9       3.7654  -34.0491   26.0108 H       1  LIG   0.0519   0.0000 
26    O1      -1.2400  -35.9060   23.9770 O.2     1  LIG  -0.6361  -0.5700 
27    C13      2.3440  -38.7570   21.0360 C.3     1  LIG   0.1354   0.0690 
28    H10      3.1238  -38.3754   20.4296 H       1  LIG   0.0981   0.1000 
29    C14      2.9380  -39.8900   21.8010 C.3     1  LIG  -0.1181  -0.2000 
30    H11      3.8890  -40.1268   21.3997 H       1  LIG   0.0732   0.1000 
31    H12      3.0430  -39.6129   22.8177 H       1  LIG   0.0789   0.1000 
32    C15      1.6390  -40.0610   21.0880 C.3     1  LIG  -0.1196  -0.2000 
33    H13      0.6832  -39.9283   21.5242 H       1  LIG   0.0807   0.1000 
34    H14      1.5292  -40.4423   20.1061 H       1  LIG   0.0733   0.1000 
@<TRIPOS>BOND
1     2     1     ar
2     3     2     1
3     4     2     ar
4     5     4     1
5     6     4     ar
6     7     6     ar
7     8     7     1
8     9     8     1
9     10    8     1
10    11    10    1
11    12    11    ar
12    13    12    1
13    14    12    ar
14    15    14    1
15    16    14    ar
16    17    16    1
17    18    16    ar
18    19    11    ar
19    19    18    ar
20    20    19    1
21    21    1     ar
22    21    7     ar
23    21    20    1
24    22    6     1
25    23    22    1
26    24    22    1
27    25    22    1
28    26    10    2
29    27    20    1
30    28    27    1
31    29    27    1
32    30    29    1
33    31    29    1
34    32    27    1
35    32    29    1
36    33    32    1
37    34    32    1
@<TRIPOS>SUBSTRUCTURE
1   LIG    1    
 
########## Name        : 1VRT.lig
########## Description : AM1BCC_CHARGES =  -0.0002 ORIGINAL_CHARGES =  -0.0000

@<TRIPOS>MOLECULE
1VRT.lig
34    37    1     0     0    
SMALL
USER_CHARGES
@<TRIPOS>ATOM
1     N1       4.0540  -36.9310   22.2210 N.ar    1  LIG  -0.6650  -0.6200 
2     C1       4.9660  -36.2380   22.9390 C.ar    1  LIG   0.3947   0.1600 
3     H1       6.0082  -36.2811   22.6707 H       1  LIG   0.0281   0.1500 
4     C2       4.6240  -35.4500   24.0360 C.ar    1  LIG  -0.2334  -0.1500 
5     H2       5.3884  -34.9151   24.5740 H       1  LIG   0.1480   0.1500 
6     C3       3.3050  -35.3690   24.4150 C.ar    1  LIG  -0.0698  -0.1435 
7     C4       2.3460  -36.0770   23.6860 C.ar    1  LIG  -0.0398   0.1170 
8     N2       0.9890  -36.0280   24.1030 N.am    1  LIG  -0.4596  -0.5470 
9     H3       0.7643  -35.9928   25.0860 H       1  LIG   0.3311   0.3700 
10    C5      -0.1450  -36.0180   23.4080 C.2     1  LIG   0.7361   0.5438 
11    C6      -0.1190  -36.0770   21.8860 C.ar    1  LIG  -0.2550   0.0862 
12    C7      -1.1230  -35.3990   21.1890 C.ar    1  LIG  -0.0321  -0.1500 
13    H4      -1.7552  -34.6955   21.7041 H       1  LIG   0.1623   0.1500 
14    C8      -1.2960  -35.6300   19.8690 C.ar    1  LIG  -0.2723  -0.1500 
15    H5      -2.0662  -35.1073   19.3273 H       1  LIG   0.1522   0.1500 
16    C9      -0.4670  -36.5450   19.2400 C.ar    1  LIG   0.4373   0.1600 
17    H6      -0.5947  -36.7554   18.1915 H       1  LIG   0.0280   0.1500 
18    N3       0.5220  -37.2120   19.8740 N.ar    1  LIG  -0.6893  -0.6200 
19    C10      0.7040  -36.9790   21.1800 C.ar    1  LIG   0.6480   0.4100 
20    N4       1.7670  -37.6730   21.8260 N.pl3   1  LIG  -0.6924  -0.3690 
21    C11      2.7540  -36.8570   22.5840 C.ar    1  LIG   0.5805   0.4100 
22    C12      2.9040  -34.5090   25.6010 C.3     1  LIG  -0.0620   0.1435 
23    H7       2.2235  -33.7630   25.2820 H       1  LIG   0.0570   0.0000 
24    H8       2.4436  -35.1154   26.3371 H       1  LIG   0.0495   0.0000 
25    H9       3.7654  -34.0491   26.0108 H       1  LIG   0.0519   0.0000 
26    O1      -1.2400  -35.9060   23.9770 O.2     1  LIG  -0.6361  -0.5700 
27    C13      2.3440  -38.7570   21.0360 C.3     1  LIG   0.1354   0.0690 
28    H10      3.1238  -38.3754   20.4296 H       1  LIG   0.0981   0.1000 
29    C14      2.9380  -39.8900   21.8010 C.3     1  LIG  -0.1181  -0.2000 
30    H11      3.8890  -40.1268   21.3997 H       1  LIG   0.0732   0.1000 
31    H12      3.0430  -39.6129   22.8177 H       1  LIG   0.0789   0.1000 
32    C15      1.6390  -40.0610   21.0880 C.3     1  LIG  -0.1196  -0.2000 
33    H13      0.6832  -39.9283   21.5242 H       1  LIG   0.0807   0.1000 
34    H14      1.5292  -40.4423   20.1061 H       1  LIG   0.0733   0.1000 
@<TRIPOS>BOND
1     2     1     ar
2     3     2     1
3     4     2     ar
4     5     4     1
5     6     4     ar
6     7     6     ar
7     8     7     1
8     9     8     1
9     10    8     1
10    11    10    1
11    12    11    ar
12    13    12    1
13    14    12    ar
14    15    14    1
15    16    14    ar
16    17    16    1
17    18    16    ar
18    19    11    ar
19    19    18    ar
20    20    19    1
21    21    1     ar
22    21    7     ar
23    21    20    1
24    22    6     1
25    23    22    1
26    24    22    1
27    25    22    1
28    26    10    2
29    27    20    1
30    28    27    1
31    29    27    1
32    30    29    1
33    31    29    1
34    32    27    1
35    32    29    1
36    33    32    1
37    34    32    1
@<TRIPOS>SUBSTRUCTURE
1   LIG    1    
 
########## Name        : 1VRT.lig
########## Description : AM1BCC_CHARGES =  -0.0002 ORIGINAL_CHARGES =  -0.0000

@<TRIPOS>MOLECULE
1VRT.lig
34    37    1     0     0    
SMALL
USER_CHARGES
@<TRIPOS>ATOM
1     N1       4.0540  -36.9310   22.2210 N.ar    1  LIG  -0.6650  -0.6200 
2     C1       4.9660  -36.2380   22.9390 C.ar    1  LIG   0.3947   0.1600 
3     H1       6.0082  -36.2811   22.6707 H       1  LIG   0.0281   0.1500 
4     C2       4.6240  -35.4500   24.0360 C.ar    1  LIG  -0.2334  -0.1500 
5     H2       5.3884  -34.9151   24.5740 H       1  LIG   0.1480   0.1500 
6     C3       3.3050  -35.3690   24.4150 C.ar    1  LIG  -0.0698  -0.1435 
7     C4       2.3460  -36.0770   23.6860 C.ar    1  LIG  -0.0398   0.1170 
8     N2       0.9890  -36.0280   24.1030 N.am    1  LIG  -0.4596  -0.5470 
9     H3       0.7643  -35.9928   25.0860 H       1  LIG   0.3311   0.3700 
10    C5      -0.1450  -36.0180   23.4080 C.2     1  LIG   0.7361   0.5438 
11    C6      -0.1190  -36.0770   21.8860 C.ar    1  LIG  -0.2550   0.0862 
12    C7      -1.1230  -35.3990   21.1890 C.ar    1  LIG  -0.0321  -0.1500 
13    H4      -1.7552  -34.6955   21.7041 H       1  LIG   0.1623   0.1500 
14    C8      -1.2960  -35.6300   19.8690 C.ar    1  LIG  -0.2723  -0.1500 
15    H5      -2.0662  -35.1073   19.3273 H       1  LIG   0.1522   0.1500 
16    C9      -0.4670  -36.5450   19.2400 C.ar    1  LIG   0.4373   0.1600 
17    H6      -0.5947  -36.7554   18.1915 H       1  LIG   0.0280   0.1500 
18    N3       0.5220  -37.2120   19.8740 N.ar    1  LIG  -0.6893  -0.6200 
19    C10      0.7040  -36.9790   21.1800 C.ar    1  LIG   0.6480   0.4100 
20    N4       1.7670  -37.6730   21.8260 N.pl3   1  LIG  -0.6924  -0.3690 
21    C11      2.7540  -36.8570   22.5840 C.ar    1  LIG   0.5805   0.4100 
22    C12      2.9040  -34.5090   25.6010 C.3     1  LIG  -0.0620   0.1435 
23    H7       2.2235  -33.7630   25.2820 H       1  LIG   0.0570   0.0000 
24    H8       2.4436  -35.1154   26.3371 H       1  LIG   0.0495   0.0000 
25    H9       3.7654  -34.0491   26.0108 H       1  LIG   0.0519   0.0000 
26    O1      -1.2400  -35.9060   23.9770 O.2     1  LIG  -0.6361  -0.5700 
27    C13      2.3440  -38.7570   21.0360 C.3     1  LIG   0.1354   0.0690 
28    H10      3.1238  -38.3754   20.4296 H       1  LIG   0.0981   0.1000 
29    C14      2.9380  -39.8900   21.8010 C.3     1  LIG  -0.1181  -0.2000 
30    H11      3.8890  -40.1268   21.3997 H       1  LIG   0.0732   0.1000 
31    H12      3.0430  -39.6129   22.8177 H       1  LIG   0.0789   0.1000 
32    C15      1.6390  -40.0610   21.0880 C.3     1  LIG  -0.1196  -0.2000 
33    H13      0.6832  -39.9283   21.5242 H       1  LIG   0.0807   0.1000 
34    H14      1.5292  -40.4423   20.1061 H       1  LIG   0.0733   0.1000 
@<TRIPOS>BOND
1     2     1     ar
2     3     2     1
3     4     2     ar
4     5     4     1
5     6     4     ar
6     7     6     ar
7     8     7     1
8     9     8     1
9     10    8     1
10    11    10    1
11    12    11    ar
12    13    12    1
13    14    12    ar
14    15    14    1
15    16    14    ar
16    17    16    1
17    18    16    ar
18    19    11    ar
19    19    18    ar
20    20    19    1
21    21    1     ar
22    21    7     ar
23    21    20    1
24    22    6     1
25    23    22    1
26    24    22    1
27    25    22    1
28    26    10    2
29    27    20    1
30    28    27    1
31    29    27    1
32    30    29    1
33    31    29    1
34    32    27    1
35    32    29    1
36    33    32    1
37    34    32    1
@<TRIPOS>SUBSTRUCTURE
1   LIG    1    
 
########## Name        : 1VRT.lig
########## Description : AM1BCC_CHARGES =  -0.0002 ORIGINAL_CHARGES =  -0.0000

@<TRIPOS>MOLECULE
1VRT.lig
34    37    1     0     0    
SMALL
USER_CHARGES
@<TRIPOS>ATOM
1     N1       4.0540  -36.9310   22.2210 N.ar    1  LIG  -0.6650  -0.6200 
2     C1       4.9660  -36.2380   22.9390 C.ar    1  LIG   0.3947   0.1600 
3     H1       6.0082  -36.2811   22.6707 H       1  LIG   0.0281   0.1500 
4     C2       4.6240  -35.4500   24.0360 C.ar    1  LIG  -0.2334  -0.1500 
5     H2       5.3884  -34.9151   24.5740 H       1  LIG   0.1480   0.1500 
6     C3       3.3050  -35.3690   24.4150 C.ar    1  LIG  -0.0698  -0.1435 
7     C4       2.3460  -36.0770   23.6860 C.ar    1  LIG  -0.0398   0.1170 
8     N2       0.9890  -36.0280   24.1030 N.am    1  LIG  -0.4596  -0.5470 
9     H3       0.7643  -35.9928   25.0860 H       1  LIG   0.3311   0.3700 
10    C5      -0.1450  -36.0180   23.4080 C.2     1  LIG   0.7361   0.5438 
11    C6      -0.1190  -36.0770   21.8860 C.ar    1  LIG  -0.2550   0.0862 
12    C7      -1.1230  -35.3990   21.1890 C.ar    1  LIG  -0.0321  -0.1500 
13    H4      -1.7552  -34.6955   21.7041 H       1  LIG   0.1623   0.1500 
14    C8      -1.2960  -35.6300   19.8690 C.ar    1  LIG  -0.2723  -0.1500 
15    H5      -2.0662  -35.1073   19.3273 H       1  LIG   0.1522   0.1500 
16    C9      -0.4670  -36.5450   19.2400 C.ar    1  LIG   0.4373   0.1600 
17    H6      -0.5947  -36.7554   18.1915 H       1  LIG   0.0280   0.1500 
18    N3       0.5220  -37.2120   19.8740 N.ar    1  LIG  -0.6893  -0.6200 
19    C10      0.7040  -36.9790   21.1800 C.ar    1  LIG   0.6480   0.4100 
20    N4       1.7670  -37.6730   21.8260 N.pl3   1  LIG  -0.6924  -0.3690 
21    C11      2.7540  -36.8570   22.5840 C.ar    1  LIG   0.5805   0.4100 
22    C12      2.9040  -34.5090   25.6010 C.3     1  LIG  -0.0620   0.1435 
23    H7       2.2235  -33.7630   25.2820 H       1  LIG   0.0570   0.0000 
24    H8       2.4436  -35.1154   26.3371 H       1  LIG   0.0495   0.0000 
25    H9       3.7654  -34.0491   26.0108 H       1  LIG   0.0519   0.0000 
26    O1      -1.2400  -35.9060   23.9770 O.2     1  LIG  -0.6361  -0.5700 
27    C13      2.3440  -38.7570   21.0360 C.3     1  LIG   0.1354   0.0690 
28    H10      3.1238  -38.3754   20.4296 H       1  LIG   0.0981   0.1000 
29    C14      2.9380  -39.8900   21.8010 C.3     1  LIG  -0.1181  -0.2000 
30    H11      3.8890  -40.1268   21.3997 H       1  LIG   0.0732   0.1000 
31    H12      3.0430  -39.6129   22.8177 H       1  LIG   0.0789   0.1000 
32    C15      1.6390  -40.0610   21.0880 C.3     1  LIG  -0.1196  -0.2000 
33    H13      0.6832  -39.9283   21.5242 H       1  LIG   0.0807   0.1000 
34    H14      1.5292  -40.4423   20.1061 H       1  LIG   0.0733   0.1000 
@<TRIPOS>BOND
1     2     1     ar
2     3     2     1
3     4     2     ar
4     5     4     1
5     6     4     ar
6     7     6     ar
7     8     7     1
8     9     8     1
9     10    8     1
10    11    10    1
11    12    11    ar
12    13    12    1
13    14    12    ar
14    15    14    1
15    16    14    ar
16    17    16    1
17    18    16    ar
18    19    11    ar
19    19    18    ar
20    20    19    1
21    21    1     ar
22    21    7     ar
23    21    20    1
24    22    6     1
25    23    22    1
26    24    22    1
27    25    22    1
28    26    10    2
29    27    20    1
30    28    27    1
31    29    27    1
32    30    29    1
33    31    29    1
34    32    27    1
35    32    29    1
36    33    32    1
37    34    32    1
@<TRIPOS>SUBSTRUCTURE
1   LIG    1    
 
########## Name        : 1VRT.lig
########## Description : AM1BCC_CHARGES =  -0.0002 ORIGINAL_CHARGES =  -0.0000

@<TRIPOS>MOLECULE
1VRT.lig
34    37    1     0     0    
SMALL
USER_CHARGES
@<TRIPOS>ATOM
1     N1       4.0540  -36.9310   22.2210 N.ar    1  LIG  -0.6650  -0.6200 
2     C1       4.9660  -36.2380   22.9390 C.ar    1  LIG   0.3947   0.1600 
3     H1       6.0082  -36.2811   22.6707 H       1  LIG   0.0281   0.1500 
4     C2       4.6240  -35.4500   24.0360 C.ar    1  LIG  -0.2334  -0.1500 
5     H2       5.3884  -34.9151   24.5740 H       1  LIG   0.1480   0.1500 
6     C3       3.3050  -35.3690   24.4150 C.ar    1  LIG  -0.0698  -0.1435 
7     C4       2.3460  -36.0770   23.6860 C.ar    1  LIG  -0.0398   0.1170 
8     N2       0.9890  -36.0280   24.1030 N.am    1  LIG  -0.4596  -0.5470 
9     H3       0.7643  -35.9928   25.0860 H       1  LIG   0.3311   0.3700 
10    C5      -0.1450  -36.0180   23.4080 C.2     1  LIG   0.7361   0.5438 
11    C6      -0.1190  -36.0770   21.8860 C.ar    1  LIG  -0.2550   0.0862 
12    C7      -1.1230  -35.3990   21.1890 C.ar    1  LIG  -0.0321  -0.1500 
13    H4      -1.7552  -34.6955   21.7041 H       1  LIG   0.1623   0.1500 
14    C8      -1.2960  -35.6300   19.8690 C.ar    1  LIG  -0.2723  -0.1500 
15    H5      -2.0662  -35.1073   19.3273 H       1  LIG   0.1522   0.1500 
16    C9      -0.4670  -36.5450   19.2400 C.ar    1  LIG   0.4373   0.1600 
17    H6      -0.5947  -36.7554   18.1915 H       1  LIG   0.0280   0.1500 
18    N3       0.5220  -37.2120   19.8740 N.ar    1  LIG  -0.6893  -0.6200 
19    C10      0.7040  -36.9790   21.1800 C.ar    1  LIG   0.6480   0.4100 
20    N4       1.7670  -37.6730   21.8260 N.pl3   1  LIG  -0.6924  -0.3690 
21    C11      2.7540  -36.8570   22.5840 C.ar    1  LIG   0.5805   0.4100 
22    C12      2.9040  -34.5090   25.6010 C.3     1  LIG  -0.0620   0.1435 
23    H7       2.2235  -33.7630   25.2820 H       1  LIG   0.0570   0.0000 
24    H8       2.4436  -35.1154   26.3371 H       1  LIG   0.0495   0.0000 
25    H9       3.7654  -34.0491   26.0108 H       1  LIG   0.0519   0.0000 
26    O1      -1.2400  -35.9060   23.9770 O.2     1  LIG  -0.6361  -0.5700 
27    C13      2.3440  -38.7570   21.0360 C.3     1  LIG   0.1354   0.0690 
28    H10      3.1238  -38.3754   20.4296 H       1  LIG   0.0981   0.1000 
29    C14      2.9380  -39.8900   21.8010 C.3     1  LIG  -0.1181  -0.2000 
30    H11      3.8890  -40.1268   21.3997 H       1  LIG   0.0732   0.1000 
31    H12      3.0430  -39.6129   22.8177 H       1  LIG   0.0789   0.1000 
32    C15      1.6390  -40.0610   21.0880 C.3     1  LIG  -0.1196  -0.2000 
33    H13      0.6832  -39.9283   21.5242 H       1  LIG   0.0807   0.1000 
34    H14      1.5292  -40.4423   20.1061 H       1  LIG   0.0733   0.1000 
@<TRIPOS>BOND
1     2     1     ar
2     3     2     1
3     4     2     ar
4     5     4     1
5     6     4     ar
6     7     6     ar
7     8     7     1
8     9     8     1
9     10    8     1
10    11    10    1
11    12    11    ar
12    13    12    1
13    14    12    ar
14    15    14    1
15    16    14    ar
16    17    16    1
17    18    16    ar
18    19    11    ar
19    19    18    ar
20    20    19    1
21    21    1     ar
22    21    7     ar
23    21    20    1
24    22    6     1
25    23    22    1
26    24    22    1
27    25    22    1
28    26    10    2
29    27    20    1
30    28    27    1
31    29    27    1
32    30    29    1
33    31    29    1
34    32    27    1
35    32    29    1
36    33    32    1
37    34    32    1
@<TRIPOS>SUBSTRUCTURE
1   LIG    1    
 
########## Name        : 1VRT.lig
########## Description : AM1BCC_CHARGES =  -0.0002 ORIGINAL_CHARGES =  -0.0000

@<TRIPOS>MOLECULE
1VRT.lig
34    37    1     0     0    
SMALL
USER_CHARGES
@<TRIPOS>ATOM
1     N1       4.0540  -36.9310   22.2210 N.ar    1  LIG  -0.6650  -0.6200 
2     C1       4.9660  -36.2380   22.9390 C.ar    1  LIG   0.3947   0.1600 
3     H1       6.0082  -36.2811   22.6707 H       1  LIG   0.0281   0.1500 
4     C2       4.6240  -35.4500   24.0360 C.ar    1  LIG  -0.2334  -0.1500 
5     H2       5.3884  -34.9151   24.5740 H       1  LIG   0.1480   0.1500 
6     C3       3.3050  -35.3690   24.4150 C.ar    1  LIG  -0.0698  -0.1435 
7     C4       2.3460  -36.0770   23.6860 C.ar    1  LIG  -0.0398   0.1170 
8     N2       0.9890  -36.0280   24.1030 N.am    1  LIG  -0.4596  -0.5470 
9     H3       0.7643  -35.9928   25.0860 H       1  LIG   0.3311   0.3700 
10    C5      -0.1450  -36.0180   23.4080 C.2     1  LIG   0.7361   0.5438 
11    C6      -0.1190  -36.0770   21.8860 C.ar    1  LIG  -0.2550   0.0862 
12    C7      -1.1230  -35.3990   21.1890 C.ar    1  LIG  -0.0321  -0.1500 
13    H4      -1.7552  -34.6955   21.7041 H       1  LIG   0.1623   0.1500 
14    C8      -1.2960  -35.6300   19.8690 C.ar    1  LIG  -0.2723  -0.1500 
15    H5      -2.0662  -35.1073   19.3273 H       1  LIG   0.1522   0.1500 
16    C9      -0.4670  -36.5450   19.2400 C.ar    1  LIG   0.4373   0.1600 
17    H6      -0.5947  -36.7554   18.1915 H       1  LIG   0.0280   0.1500 
18    N3       0.5220  -37.2120   19.8740 N.ar    1  LIG  -0.6893  -0.6200 
19    C10      0.7040  -36.9790   21.1800 C.ar    1  LIG   0.6480   0.4100 
20    N4       1.7670  -37.6730   21.8260 N.pl3   1  LIG  -0.6924  -0.3690 
21    C11      2.7540  -36.8570   22.5840 C.ar    1  LIG   0.5805   0.4100 
22    C12      2.9040  -34.5090   25.6010 C.3     1  LIG  -0.0620   0.1435 
23    H7       2.2235  -33.7630   25.2820 H       1  LIG   0.0570   0.0000 
24    H8       2.4436  -35.1154   26.3371 H       1  LIG   0.0495   0.0000 
25    H9       3.7654  -34.0491   26.0108 H       1  LIG   0.0519   0.0000 
26    O1      -1.2400  -35.9060   23.9770 O.2     1  LIG  -0.6361  -0.5700 
27    C13      2.3440  -38.7570   21.0360 C.3     1  LIG   0.1354   0.0690 
28    H10      3.1238  -38.3754   20.4296 H       1  LIG   0.0981   0.1000 
29    C14      2.9380  -39.8900   21.8010 C.3     1  LIG  -0.1181  -0.2000 
30    H11      3.8890  -40.1268   21.3997 H       1  LIG   0.0732   0.1000 
31    H12      3.0430  -39.6129   22.8177 H       1  LIG   0.0789   0.1000 
32    C15      1.6390  -40.0610   21.0880 C.3     1  LIG  -0.1196  -0.2000 
33    H13      0.6832  -39.9283   21.5242 H       1  LIG   0.0807   0.1000 
34    H14      1.5292  -40.4423   20.1061 H       1  LIG   0.0733   0.1000 
@<TRIPOS>BOND
1     2     1     ar
2     3     2     1
3     4     2     ar
4     5     4     1
5     6     4     ar
6     7     6     ar
7     8     7     1
8     9     8     1
9     10    8     1
10    11    10    1
11    12    11    ar
12    13    12    1
13    14    12    ar
14    15    14    1
15    16    14    ar
16    17    16    1
17    18    16    ar
18    19    11    ar
19    19    18    ar
20    20    19    1
21    21    1     ar
22    21    7     ar
23    21    20    1
24    22    6     1
25    23    22    1
26    24    22    1
27    25    22    1
28    26    10    2
29    27    20    1
30    28    27    1
31    29    27    1
32    30    29    1
33    31    29    1
34    32    27    1
35    32    29    1
36    33    32    1
37    34    32    1
@<TRIPOS>SUBSTRUCTURE
1   LIG    1    
 
########## Name        : 1VRT.lig
########## Description : AM1BCC_CHARGES =  -0.0002 ORIGINAL_CHARGES =  -0.0000

@<TRIPOS>MOLECULE
1VRT.lig
34    37    1     0     0    
SMALL
USER_CHARGES
@<TRIPOS>ATOM
1     N1       4.0540  -36.9310   22.2210 N.ar    1  LIG  -0.6650  -0.6200 
2     C1       4.9660  -36.2380   22.9390 C.ar    1  LIG   0.3947   0.1600 
3     H1       6.0082  -36.2811   22.6707 H       1  LIG   0.0281   0.1500 
4     C2       4.6240  -35.4500   24.0360 C.ar    1  LIG  -0.2334  -0.1500 
5     H2       5.3884  -34.9151   24.5740 H       1  LIG   0.1480   0.1500 
6     C3       3.3050  -35.3690   24.4150 C.ar    1  LIG  -0.0698  -0.1435 
7     C4       2.3460  -36.0770   23.6860 C.ar    1  LIG  -0.0398   0.1170 
8     N2       0.9890  -36.0280   24.1030 N.am    1  LIG  -0.4596  -0.5470 
9     H3       0.7643  -35.9928   25.0860 H       1  LIG   0.3311   0.3700 
10    C5      -0.1450  -36.0180   23.4080 C.2     1  LIG   0.7361   0.5438 
11    C6      -0.1190  -36.0770   21.8860 C.ar    1  LIG  -0.2550   0.0862 
12    C7      -1.1230  -35.3990   21.1890 C.ar    1  LIG  -0.0321  -0.1500 
13    H4      -1.7552  -34.6955   21.7041 H       1  LIG   0.1623   0.1500 
14    C8      -1.2960  -35.6300   19.8690 C.ar    1  LIG  -0.2723  -0.1500 
15    H5      -2.0662  -35.1073   19.3273 H       1  LIG   0.1522   0.1500 
16    C9      -0.4670  -36.5450   19.2400 C.ar    1  LIG   0.4373   0.1600 
17    H6      -0.5947  -36.7554   18.1915 H       1  LIG   0.0280   0.1500 
18    N3       0.5220  -37.2120   19.8740 N.ar    1  LIG  -0.6893  -0.6200 
19    C10      0.7040  -36.9790   21.1800 C.ar    1  LIG   0.6480   0.4100 
20    N4       1.7670  -37.6730   21.8260 N.pl3   1  LIG  -0.6924  -0.3690 
21    C11      2.7540  -36.8570   22.5840 C.ar    1  LIG   0.5805   0.4100 
22    C12      2.9040  -34.5090   25.6010 C.3     1  LIG  -0.0620   0.1435 
23    H7       2.2235  -33.7630   25.2820 H       1  LIG   0.0570   0.0000 
24    H8       2.4436  -35.1154   26.3371 H       1  LIG   0.0495   0.0000 
25    H9       3.7654  -34.0491   26.0108 H       1  LIG   0.0519   0.0000 
26    O1      -1.2400  -35.9060   23.9770 O.2     1  LIG  -0.6361  -0.5700 
27    C13      2.3440  -38.7570   21.0360 C.3     1  LIG   0.1354   0.0690 
28    H10      3.1238  -38.3754   20.4296 H       1  LIG   0.0981   0.1000 
29    C14      2.9380  -39.8900   21.8010 C.3     1  LIG  -0.1181  -0.2000 
30    H11      3.8890  -40.1268   21.3997 H       1  LIG   0.0732   0.1000 
31    H12      3.0430  -39.6129   22.8177 H       1  LIG   0.0789   0.1000 
32    C15      1.6390  -40.0610   21.0880 C.3     1  LIG  -0.1196  -0.2000 
33    H13      0.6832  -39.9283   21.5242 H       1  LIG   0.0807   0.1000 
34    H14      1.5292  -40.4423   20.1061 H       1  LIG   0.0733   0.1000 
@<TRIPOS>BOND
1     2     1     ar
2     3     2     1
3     4     2     ar
4     5     4     1
5     6     4     ar
6     7     6     ar
7     8     7     1
8     9     8     1
9     10    8     1
10    11    10    1
11    12    11    ar
12    13    12    1
13    14    12    ar
14    15    14    1
15    16    14    ar
16    17    16    1
17    18    16    ar
18    19    11    ar
19    19    18    ar
20    20    19    1
21    21    1     ar
22    21    7     ar
23    21    20    1
24    22    6     1
25    23    22    1
26    24    22    1
27    25    22    1
28    26    10    2
29    27    20    1
30    28    27    1
31    29    27    1
32    30    29    1
33    31    29    1
34    32    27    1
35    32    29    1
36    33    32    1
37    34    32    1
@<TRIPOS>SUBSTRUCTURE
1   LIG    1    
 
########## Name        : 1VRT.lig
########## Description : AM1BCC_CHARGES =  -0.0002 ORIGINAL_CHARGES =  -0.0000

@<TRIPOS>MOLECULE
1VRT.lig
34    37    1     0     0    
SMALL
USER_CHARGES
@<TRIPOS>ATOM
1     N1       4.0540  -36.9310   22.2210 N.ar    1  LIG  -0.6650  -0.6200 
2     C1       4.9660  -36.2380   22.9390 C.ar    1  LIG   0.3947   0.1600 
3     H1       6.0082  -36.2811   22.6707 H       1  LIG   0.0281   0.1500 
4     C2       4.6240  -35.4500   24.0360 C.ar    1  LIG  -0.2334  -0.1500 
5     H2       5.3884  -34.9151   24.5740 H       1  LIG   0.1480   0.1500 
6     C3       3.3050  -35.3690   24.4150 C.ar    1  LIG  -0.0698  -0.1435 
7     C4       2.3460  -36.0770   23.6860 C.ar    1  LIG  -0.0398   0.1170 
8     N2       0.9890  -36.0280   24.1030 N.am    1  LIG  -0.4596  -0.5470 
9     H3       0.7643  -35.9928   25.0860 H       1  LIG   0.3311   0.3700 
10    C5      -0.1450  -36.0180   23.4080 C.2     1  LIG   0.7361   0.5438 
11    C6      -0.1190  -36.0770   21.8860 C.ar    1  LIG  -0.2550   0.0862 
12    C7      -1.1230  -35.3990   21.1890 C.ar    1  LIG  -0.0321  -0.1500 
13    H4      -1.7552  -34.6955   21.7041 H       1  LIG   0.1623   0.1500 
14    C8      -1.2960  -35.6300   19.8690 C.ar    1  LIG  -0.2723  -0.1500 
15    H5      -2.0662  -35.1073   19.3273 H       1  LIG   0.1522   0.1500 
16    C9      -0.4670  -36.5450   19.2400 C.ar    1  LIG   0.4373   0.1600 
17    H6      -0.5947  -36.7554   18.1915 H       1  LIG   0.0280   0.1500 
18    N3       0.5220  -37.2120   19.8740 N.ar    1  LIG  -0.6893  -0.6200 
19    C10      0.7040  -36.9790   21.1800 C.ar    1  LIG   0.6480   0.4100 
20    N4       1.7670  -37.6730   21.8260 N.pl3   1  LIG  -0.6924  -0.3690 
21    C11      2.7540  -36.8570   22.5840 C.ar    1  LIG   0.5805   0.4100 
22    C12      2.9040  -34.5090   25.6010 C.3     1  LIG  -0.0620   0.1435 
23    H7       2.2235  -33.7630   25.2820 H       1  LIG   0.0570   0.0000 
24    H8       2.4436  -35.1154   26.3371 H       1  LIG   0.0495   0.0000 
25    H9       3.7654  -34.0491   26.0108 H       1  LIG   0.0519   0.0000 
26    O1      -1.2400  -35.9060   23.9770 O.2     1  LIG  -0.6361  -0.5700 
27    C13      2.3440  -38.7570   21.0360 C.3     1  LIG   0.1354   0.0690 
28    H10      3.1238  -38.3754   20.4296 H       1  LIG   0.0981   0.1000 
29    C14      2.9380  -39.8900   21.8010 C.3     1  LIG  -0.1181  -0.2000 
30    H11      3.8890  -40.1268   21.3997 H       1  LIG   0.0732   0.1000 
31    H12      3.0430  -39.6129   22.8177 H       1  LIG   0.0789   0.1000 
32    C15      1.6390  -40.0610   21.0880 C.3     1  LIG  -0.1196  -0.2000 
33    H13      0.6832  -39.9283   21.5242 H       1  LIG   0.0807   0.1000 
34    H14      1.5292  -40.4423   20.1061 H       1  LIG   0.0733   0.1000 
@<TRIPOS>BOND
1     2     1     ar
2     3     2     1
3     4     2     ar
4     5     4     1
5     6     4     ar
6     7     6     ar
7     8     7     1
8     9     8     1
9     10    8     1
10    11    10    1
11    12    11    ar
12    13    12    1
13    14    12    ar
14    15    14    1
15    16    14    ar
16    17    16    1
17    18    16    ar
18    19    11    ar
19    19    18    ar
20    20    19    1
21    21    1     ar
22    21    7     ar
23    21    20    1
24    22    6     1
25    23    22    1
26    24    22    1
27    25    22    1
28    26    10    2
29    27    20    1
30    28    27    1
31    29    27    1
32    30    29    1
33    31    29    1
34    32    27    1
35    32    29    1
36    33    32    1
37    34    32    1
@<TRIPOS>SUBSTRUCTURE
1   LIG    1    
 
########## Name        : 1VRT.lig
########## Description : AM1BCC_CHARGES =  -0.0002 ORIGINAL_CHARGES =  -0.0000

@<TRIPOS>MOLECULE
1VRT.lig
34    37    1     0     0    
SMALL
USER_CHARGES
@<TRIPOS>ATOM
1     N1       4.0540  -36.9310   22.2210 N.ar    1  LIG  -0.6650  -0.6200 
2     C1       4.9660  -36.2380   22.9390 C.ar    1  LIG   0.3947   0.1600 
3     H1       6.0082  -36.2811   22.6707 H       1  LIG   0.0281   0.1500 
4     C2       4.6240  -35.4500   24.0360 C.ar    1  LIG  -0.2334  -0.1500 
5     H2       5.3884  -34.9151   24.5740 H       1  LIG   0.1480   0.1500 
6     C3       3.3050  -35.3690   24.4150 C.ar    1  LIG  -0.0698  -0.1435 
7     C4       2.3460  -36.0770   23.6860 C.ar    1  LIG  -0.0398   0.1170 
8     N2       0.9890  -36.0280   24.1030 N.am    1  LIG  -0.4596  -0.5470 
9     H3       0.7643  -35.9928   25.0860 H       1  LIG   0.3311   0.3700 
10    C5      -0.1450  -36.0180   23.4080 C.2     1  LIG   0.7361   0.5438 
11    C6      -0.1190  -36.0770   21.8860 C.ar    1  LIG  -0.2550   0.0862 
12    C7      -1.1230  -35.3990   21.1890 C.ar    1  LIG  -0.0321  -0.1500 
13    H4      -1.7552  -34.6955   21.7041 H       1  LIG   0.1623   0.1500 
14    C8      -1.2960  -35.6300   19.8690 C.ar    1  LIG  -0.2723  -0.1500 
15    H5      -2.0662  -35.1073   19.3273 H       1  LIG   0.1522   0.1500 
16    C9      -0.4670  -36.5450   19.2400 C.ar    1  LIG   0.4373   0.1600 
17    H6      -0.5947  -36.7554   18.1915 H       1  LIG   0.0280   0.1500 
18    N3       0.5220  -37.2120   19.8740 N.ar    1  LIG  -0.6893  -0.6200 
19    C10      0.7040  -36.9790   21.1800 C.ar    1  LIG   0.6480   0.4100 
20    N4       1.7670  -37.6730   21.8260 N.pl3   1  LIG  -0.6924  -0.3690 
21    C11      2.7540  -36.8570   22.5840 C.ar    1  LIG   0.5805   0.4100 
22    C12      2.9040  -34.5090   25.6010 C.3     1  LIG  -0.0620   0.1435 
23    H7       2.2235  -33.7630   25.2820 H       1  LIG   0.0570   0.0000 
24    H8       2.4436  -35.1154   26.3371 H       1  LIG   0.0495   0.0000 
25    H9       3.7654  -34.0491   26.0108 H       1  LIG   0.0519   0.0000 
26    O1      -1.2400  -35.9060   23.9770 O.2     1  LIG  -0.6361  -0.5700 
27    C13      2.3440  -38.7570   21.0360 C.3     1  LIG   0.1354   0.0690 
28    H10      3.1238  -38.3754   20.4296 H       1  LIG   0.0981   0.1000 
29    C14      2.9380  -39.8900   21.8010 C.3     1  LIG  -0.1181  -0.2000 
30    H11      3.8890  -40.1268   21.3997 H       1  LIG   0.0732   0.1000 
31    H12      3.0430  -39.6129   22.8177 H       1  LIG   0.0789   0.1000 
32    C15      1.6390  -40.0610   21.0880 C.3     1  LIG  -0.1196  -0.2000 
33    H13      0.6832  -39.9283   21.5242 H       1  LIG   0.0807   0.1000 
34    H14      1.5292  -40.4423   20.1061 H       1  LIG   0.0733   0.1000 
@<TRIPOS>BOND
1     2     1     ar
2     3     2     1
3     4     2     ar
4     5     4     1
5     6     4     ar
6     7     6     ar
7     8     7     1
8     9     8     1
9     10    8     1
10    11    10    1
11    12    11    ar
12    13    12    1
13    14    12    ar
14    15    14    1
15    16    14    ar
16    17    16    1
17    18    16    ar
18    19    11    ar
19    19    18    ar
20    20    19    1
21    21    1     ar
22    21    7     ar
23    21    20    1
24    22    6     1
25    23    22    1
26    24    22    1
27    25    22    1
28    26    10    2
29    27    20    1
30    28    27    1
31    29    27    1
32    30    29    1
33    31    29    1
34    32    27    1
35    32    29    1
36    33    32    1
37    34    32    1
@<TRIPOS>SUBSTRUCTURE
1   LIG    1    
 
########## Name        : 1VRT.lig
########## Description : AM1BCC_CHARGES =  -0.0002 ORIGINAL_CHARGES =  -0.0000

@<TRIPOS>MOLECULE
1VRT.lig
34    37    1     0     0    
SMALL
USER_CHARGES
@<TRIPOS>ATOM
1     N1       4.0540  -36.9310   22.2210 N.ar    1  LIG  -0.6650  -0.6200 
2     C1       4.9660  -36.2380   22.9390 C.ar    1  LIG   0.3947   0.1600 
3     H1       6.0082  -36.2811   22.6707 H       1  LIG   0.0281   0.1500 
4     C2       4.6240  -35.4500   24.0360 C.ar    1  LIG  -0.2334  -0.1500 
5     H2       5.3884  -34.9151   24.5740 H       1  LIG   0.1480   0.1500 
6     C3       3.3050  -35.3690   24.4150 C.ar    1  LIG  -0.0698  -0.1435 
7     C4       2.3460  -36.0770   23.6860 C.ar    1  LIG  -0.0398   0.1170 
8     N2       0.9890  -36.0280   24.1030 N.am    1  LIG  -0.4596  -0.5470 
9     H3       0.7643  -35.9928   25.0860 H       1  LIG   0.3311   0.3700 
10    C5      -0.1450  -36.0180   23.4080 C.2     1  LIG   0.7361   0.5438 
11    C6      -0.1190  -36.0770   21.8860 C.ar    1  LIG  -0.2550   0.0862 
12    C7      -1.1230  -35.3990   21.1890 C.ar    1  LIG  -0.0321  -0.1500 
13    H4      -1.7552  -34.6955   21.7041 H       1  LIG   0.1623   0.1500 
14    C8      -1.2960  -35.6300   19.8690 C.ar    1  LIG  -0.2723  -0.1500 
15    H5      -2.0662  -35.1073   19.3273 H       1  LIG   0.1522   0.1500 
16    C9      -0.4670  -36.5450   19.2400 C.ar    1  LIG   0.4373   0.1600 
17    H6      -0.5947  -36.7554   18.1915 H       1  LIG   0.0280   0.1500 
18    N3       0.5220  -37.2120   19.8740 N.ar    1  LIG  -0.6893  -0.6200 
19    C10      0.7040  -36.9790   21.1800 C.ar    1  LIG   0.6480   0.4100 
20    N4       1.7670  -37.6730   21.8260 N.pl3   1  LIG  -0.6924  -0.3690 
21    C11      2.7540  -36.8570   22.5840 C.ar    1  LIG   0.5805   0.4100 
22    C12      2.9040  -34.5090   25.6010 C.3     1  LIG  -0.0620   0.1435 
23    H7       2.2235  -33.7630   25.2820 H       1  LIG   0.0570   0.0000 
24    H8       2.4436  -35.1154   26.3371 H       1  LIG   0.0495   0.0000 
25    H9       3.7654  -34.0491   26.0108 H       1  LIG   0.0519   0.0000 
26    O1      -1.2400  -35.9060   23.9770 O.2     1  LIG  -0.6361  -0.5700 
27    C13      2.3440  -38.7570   21.0360 C.3     1  LIG   0.1354   0.0690 
28    H10      3.1238  -38.3754   20.4296 H       1  LIG   0.0981   0.1000 
29    C14      2.9380  -39.8900   21.8010 C.3     1  LIG  -0.1181  -0.2000 
30    H11      3.8890  -40.1268   21.3997 H       1  LIG   0.0732   0.1000 
31    H12      3.0430  -39.6129   22.8177 H       1  LIG   0.0789   0.1000 
32    C15      1.6390  -40.0610   21.0880 C.3     1  LIG  -0.1196  -0.2000 
33    H13      0.6832  -39.9283   21.5242 H       1  LIG   0.0807   0.1000 
34    H14      1.5292  -40.4423   20.1061 H       1  LIG   0.0733   0.1000 
@<TRIPOS>BOND
1     2     1     ar
2     3     2     1
3     4     2     ar
4     5     4     1
5     6     4     ar
6     7     6     ar
7     8     7     1
8     9     8     1
9     10    8     1
10    11    10    1
11    12    11    ar
12    13    12    1
13    14    12    ar
14    15    14    1
15    16    14    ar
16    17    16    1
17    18    16    ar
18    19    11    ar
19    19    18    ar
20    20    19    1
21    21    1     ar
22    21    7     ar
23    21    20    1
24    22    6     1
25    23    22    1
26    24    22    1
27    25    22    1
28    26    10    2
29    27    20    1
30    28    27    1
31    29    27    1
32    30    29    1
33    31    29    1
34    32    27    1
35    32    29    1
36    33    32    1
37    34    32    1
@<TRIPOS>SUBSTRUCTURE
1   LIG    1    
 
########## Name        : 1VRT.lig
########## Description : AM1BCC_CHARGES =  -0.0002 ORIGINAL_CHARGES =  -0.0000

@<TRIPOS>MOLECULE
1VRT.lig
34    37    1     0     0    
SMALL
USER_CHARGES
@<TRIPOS>ATOM
1     N1       4.0540  -36.9310   22.2210 N.ar    1  LIG  -0.6650  -0.6200 
2     C1       4.9660  -36.2380   22.9390 C.ar    1  LIG   0.3947   0.1600 
3     H1       6.0082  -36.2811   22.6707 H       1  LIG   0.0281   0.1500 
4     C2       4.6240  -35.4500   24.0360 C.ar    1  LIG  -0.2334  -0.1500 
5     H2       5.3884  -34.9151   24.5740 H       1  LIG   0.1480   0.1500 
6     C3       3.3050  -35.3690   24.4150 C.ar    1  LIG  -0.0698  -0.1435 
7     C4       2.3460  -36.0770   23.6860 C.ar    1  LIG  -0.0398   0.1170 
8     N2       0.9890  -36.0280   24.1030 N.am    1  LIG  -0.4596  -0.5470 
9     H3       0.7643  -35.9928   25.0860 H       1  LIG   0.3311   0.3700 
10    C5      -0.1450  -36.0180   23.4080 C.2     1  LIG   0.7361   0.5438 
11    C6      -0.1190  -36.0770   21.8860 C.ar    1  LIG  -0.2550   0.0862 
12    C7      -1.1230  -35.3990   21.1890 C.ar    1  LIG  -0.0321  -0.1500 
13    H4      -1.7552  -34.6955   21.7041 H       1  LIG   0.1623   0.1500 
14    C8      -1.2960  -35.6300   19.8690 C.ar    1  LIG  -0.2723  -0.1500 
15    H5      -2.0662  -35.1073   19.3273 H       1  LIG   0.1522   0.1500 
16    C9      -0.4670  -36.5450   19.2400 C.ar    1  LIG   0.4373   0.1600 
17    H6      -0.5947  -36.7554   18.1915 H       1  LIG   0.0280   0.1500 
18    N3       0.5220  -37.2120   19.8740 N.ar    1  LIG  -0.6893  -0.6200 
19    C10      0.7040  -36.9790   21.1800 C.ar    1  LIG   0.6480   0.4100 
20    N4       1.7670  -37.6730   21.8260 N.pl3   1  LIG  -0.6924  -0.3690 
21    C11      2.7540  -36.8570   22.5840 C.ar    1  LIG   0.5805   0.4100 
22    C12      2.9040  -34.5090   25.6010 C.3     1  LIG  -0.0620   0.1435 
23    H7       2.2235  -33.7630   25.2820 H       1  LIG   0.0570   0.0000 
24    H8       2.4436  -35.1154   26.3371 H       1  LIG   0.0495   0.0000 
25    H9       3.7654  -34.0491   26.0108 H       1  LIG   0.0519   0.0000 
26    O1      -1.2400  -35.9060   23.9770 O.2     1  LIG  -0.6361  -0.5700 
27    C13      2.3440  -38.7570   21.0360 C.3     1  LIG   0.1354   0.0690 
28    H10      3.1238  -38.3754   20.4296 H       1  LIG   0.0981   0.1000 
29    C14      2.9380  -39.8900   21.8010 C.3     1  LIG  -0.1181  -0.2000 
30    H11      3.8890  -40.1268   21.3997 H       1  LIG   0.0732   0.1000 
31    H12      3.0430  -39.6129   22.8177 H       1  LIG   0.0789   0.1000 
32    C15      1.6390  -40.0610   21.0880 C.3     1  LIG  -0.1196  -0.2000 
33    H13      0.6832  -39.9283   21.5242 H       1  LIG   0.0807   0.1000 
34    H14      1.5292  -40.4423   20.1061 H       1  LIG   0.0733   0.1000 
@<TRIPOS>BOND
1     2     1     ar
2     3     2     1
3     4     2     ar
4     5     4     1
5     6     4     ar
6     7     6     ar
7     8     7     1
8     9     8     1
9     10    8     1
10    11    10    1
11    12    11    ar
12    13    12    1
13    14    12    ar
14    15    14    1
15    16    14    ar
16    17    16    1
17    18    16    ar
18    19    11    ar
19    19    18    ar
20    20    19    1
21    21    1     ar
22    21    7     ar
23    21    20    1
24    22    6     1
25    23    22    1
26    24    22    1
27    25    22    1
28    26    10    2
29    27    20    1
30    28    27    1
31    29    27    1
32    30    29    1
33    31    29    1
34    32    27    1
35    32    29    1
36    33    32    1
37    34    32    1
@<TRIPOS>SUBSTRUCTURE
1   LIG    1    
 
########## Name        : 1VRT.lig
########## Description : AM1BCC_CHARGES =  -0.0002 ORIGINAL_CHARGES =  -0.0000

@<TRIPOS>MOLECULE
1VRT.lig
34    37    1     0     0    
SMALL
USER_CHARGES
@<TRIPOS>ATOM
1     N1       4.0540  -36.9310   22.2210 N.ar    1  LIG  -0.6650  -0.6200 
2     C1       4.9660  -36.2380   22.9390 C.ar    1  LIG   0.3947   0.1600 
3     H1       6.0082  -36.2811   22.6707 H       1  LIG   0.0281   0.1500 
4     C2       4.6240  -35.4500   24.0360 C.ar    1  LIG  -0.2334  -0.1500 
5     H2       5.3884  -34.9151   24.5740 H       1  LIG   0.1480   0.1500 
6     C3       3.3050  -35.3690   24.4150 C.ar    1  LIG  -0.0698  -0.1435 
7     C4       2.3460  -36.0770   23.6860 C.ar    1  LIG  -0.0398   0.1170 
8     N2       0.9890  -36.0280   24.1030 N.am    1  LIG  -0.4596  -0.5470 
9     H3       0.7643  -35.9928   25.0860 H       1  LIG   0.3311   0.3700 
10    C5      -0.1450  -36.0180   23.4080 C.2     1  LIG   0.7361   0.5438 
11    C6      -0.1190  -36.0770   21.8860 C.ar    1  LIG  -0.2550   0.0862 
12    C7      -1.1230  -35.3990   21.1890 C.ar    1  LIG  -0.0321  -0.1500 
13    H4      -1.7552  -34.6955   21.7041 H       1  LIG   0.1623   0.1500 
14    C8      -1.2960  -35.6300   19.8690 C.ar    1  LIG  -0.2723  -0.1500 
15    H5      -2.0662  -35.1073   19.3273 H       1  LIG   0.1522   0.1500 
16    C9      -0.4670  -36.5450   19.2400 C.ar    1  LIG   0.4373   0.1600 
17    H6      -0.5947  -36.7554   18.1915 H       1  LIG   0.0280   0.1500 
18    N3       0.5220  -37.2120   19.8740 N.ar    1  LIG  -0.6893  -0.6200 
19    C10      0.7040  -36.9790   21.1800 C.ar    1  LIG   0.6480   0.4100 
20    N4       1.7670  -37.6730   21.8260 N.pl3   1  LIG  -0.6924  -0.3690 
21    C11      2.7540  -36.8570   22.5840 C.ar    1  LIG   0.5805   0.4100 
22    C12      2.9040  -34.5090   25.6010 C.3     1  LIG  -0.0620   0.1435 
23    H7       2.2235  -33.7630   25.2820 H       1  LIG   0.0570   0.0000 
24    H8       2.4436  -35.1154   26.3371 H       1  LIG   0.0495   0.0000 
25    H9       3.7654  -34.0491   26.0108 H       1  LIG   0.0519   0.0000 
26    O1      -1.2400  -35.9060   23.9770 O.2     1  LIG  -0.6361  -0.5700 
27    C13      2.3440  -38.7570   21.0360 C.3     1  LIG   0.1354   0.0690 
28    H10      3.1238  -38.3754   20.4296 H       1  LIG   0.0981   0.1000 
29    C14      2.9380  -39.8900   21.8010 C.3     1  LIG  -0.1181  -0.2000 
30    H11      3.8890  -40.1268   21.3997 H       1  LIG   0.0732   0.1000 
31    H12      3.0430  -39.6129   22.8177 H       1  LIG   0.0789   0.1000 
32    C15      1.6390  -40.0610   21.0880 C.3     1  LIG  -0.1196  -0.2000 
33    H13      0.6832  -39.9283   21.5242 H       1  LIG   0.0807   0.1000 
34    H14      1.5292  -40.4423   20.1061 H       1  LIG   0.0733   0.1000 
@<TRIPOS>BOND
1     2     1     ar
2     3     2     1
3     4     2     ar
4     5     4     1
5     6     4     ar
6     7     6     ar
7     8     7     1
8     9     8     1
9     10    8     1
10    11    10    1
11    12    11    ar
12    13    12    1
13    14    12    ar
14    15    14    1
15    16    14    ar
16    17    16    1
17    18    16    ar
18    19    11    ar
19    19    18    ar
20    20    19    1
21    21    1     ar
22    21    7     ar
23    21    20    1
24    22    6     1
25    23    22    1
26    24    22    1
27    25    22    1
28    26    10    2
29    27    20    1
30    28    27    1
31    29    27    1
32    30    29    1
33    31    29    1
34    32    27    1
35    32    29    1
36    33    32    1
37    34    32    1
@<TRIPOS>SUBSTRUCTURE
1   LIG    1    
 
########## Name        : 1VRT.lig
########## Description : AM1BCC_CHARGES =  -0.0002 ORIGINAL_CHARGES =  -0.0000

@<TRIPOS>MOLECULE
1VRT.lig
34    37    1     0     0    
SMALL
USER_CHARGES
@<TRIPOS>ATOM
1     N1       4.0540  -36.9310   22.2210 N.ar    1  LIG  -0.6650  -0.6200 
2     C1       4.9660  -36.2380   22.9390 C.ar    1  LIG   0.3947   0.1600 
3     H1       6.0082  -36.2811   22.6707 H       1  LIG   0.0281   0.1500 
4     C2       4.6240  -35.4500   24.0360 C.ar    1  LIG  -0.2334  -0.1500 
5     H2       5.3884  -34.9151   24.5740 H       1  LIG   0.1480   0.1500 
6     C3       3.3050  -35.3690   24.4150 C.ar    1  LIG  -0.0698  -0.1435 
7     C4       2.3460  -36.0770   23.6860 C.ar    1  LIG  -0.0398   0.1170 
8     N2       0.9890  -36.0280   24.1030 N.am    1  LIG  -0.4596  -0.5470 
9     H3       0.7643  -35.9928   25.0860 H       1  LIG   0.3311   0.3700 
10    C5      -0.1450  -36.0180   23.4080 C.2     1  LIG   0.7361   0.5438 
11    C6      -0.1190  -36.0770   21.8860 C.ar    1  LIG  -0.2550   0.0862 
12    C7      -1.1230  -35.3990   21.1890 C.ar    1  LIG  -0.0321  -0.1500 
13    H4      -1.7552  -34.6955   21.7041 H       1  LIG   0.1623   0.1500 
14    C8      -1.2960  -35.6300   19.8690 C.ar    1  LIG  -0.2723  -0.1500 
15    H5      -2.0662  -35.1073   19.3273 H       1  LIG   0.1522   0.1500 
16    C9      -0.4670  -36.5450   19.2400 C.ar    1  LIG   0.4373   0.1600 
17    H6      -0.5947  -36.7554   18.1915 H       1  LIG   0.0280   0.1500 
18    N3       0.5220  -37.2120   19.8740 N.ar    1  LIG  -0.6893  -0.6200 
19    C10      0.7040  -36.9790   21.1800 C.ar    1  LIG   0.6480   0.4100 
20    N4       1.7670  -37.6730   21.8260 N.pl3   1  LIG  -0.6924  -0.3690 
21    C11      2.7540  -36.8570   22.5840 C.ar    1  LIG   0.5805   0.4100 
22    C12      2.9040  -34.5090   25.6010 C.3     1  LIG  -0.0620   0.1435 
23    H7       2.2235  -33.7630   25.2820 H       1  LIG   0.0570   0.0000 
24    H8       2.4436  -35.1154   26.3371 H       1  LIG   0.0495   0.0000 
25    H9       3.7654  -34.0491   26.0108 H       1  LIG   0.0519   0.0000 
26    O1      -1.2400  -35.9060   23.9770 O.2     1  LIG  -0.6361  -0.5700 
27    C13      2.3440  -38.7570   21.0360 C.3     1  LIG   0.1354   0.0690 
28    H10      3.1238  -38.3754   20.4296 H       1  LIG   0.0981   0.1000 
29    C14      2.9380  -39.8900   21.8010 C.3     1  LIG  -0.1181  -0.2000 
30    H11      3.8890  -40.1268   21.3997 H       1  LIG   0.0732   0.1000 
31    H12      3.0430  -39.6129   22.8177 H       1  LIG   0.0789   0.1000 
32    C15      1.6390  -40.0610   21.0880 C.3     1  LIG  -0.1196  -0.2000 
33    H13      0.6832  -39.9283   21.5242 H       1  LIG   0.0807   0.1000 
34    H14      1.5292  -40.4423   20.1061 H       1  LIG   0.0733   0.1000 
@<TRIPOS>BOND
1     2     1     ar
2     3     2     1
3     4     2     ar
4     5     4     1
5     6     4     ar
6     7     6     ar
7     8     7     1
8     9     8     1
9     10    8     1
10    11    10    1
11    12    11    ar
12    13    12    1
13    14    12    ar
14    15    14    1
15    16    14    ar
16    17    16    1
17    18    16    ar
18    19    11    ar
19    19    18    ar
20    20    19    1
21    21    1     ar
22    21    7     ar
23    21    20    1
24    22    6     1
25    23    22    1
26    24    22    1
27    25    22    1
28    26    10    2
29    27    20    1
30    28    27    1
31    29    27    1
32    30    29    1
33    31    29    1
34    32    27    1
35    32    29    1
36    33    32    1
37    34    32    1
@<TRIPOS>SUBSTRUCTURE
1   LIG    1    
 
########## Name        : 1VRT.lig
########## Description : AM1BCC_CHARGES =  -0.0002 ORIGINAL_CHARGES =  -0.0000

@<TRIPOS>MOLECULE
1VRT.lig
34    37    1     0     0    
SMALL
USER_CHARGES
@<TRIPOS>ATOM
1     N1       4.0540  -36.9310   22.2210 N.ar    1  LIG  -0.6650  -0.6200 
2     C1       4.9660  -36.2380   22.9390 C.ar    1  LIG   0.3947   0.1600 
3     H1       6.0082  -36.2811   22.6707 H       1  LIG   0.0281   0.1500 
4     C2       4.6240  -35.4500   24.0360 C.ar    1  LIG  -0.2334  -0.1500 
5     H2       5.3884  -34.9151   24.5740 H       1  LIG   0.1480   0.1500 
6     C3       3.3050  -35.3690   24.4150 C.ar    1  LIG  -0.0698  -0.1435 
7     C4       2.3460  -36.0770   23.6860 C.ar    1  LIG  -0.0398   0.1170 
8     N2       0.9890  -36.0280   24.1030 N.am    1  LIG  -0.4596  -0.5470 
9     H3       0.7643  -35.9928   25.0860 H       1  LIG   0.3311   0.3700 
10    C5      -0.1450  -36.0180   23.4080 C.2     1  LIG   0.7361   0.5438 
11    C6      -0.1190  -36.0770   21.8860 C.ar    1  LIG  -0.2550   0.0862 
12    C7      -1.1230  -35.3990   21.1890 C.ar    1  LIG  -0.0321  -0.1500 
13    H4      -1.7552  -34.6955   21.7041 H       1  LIG   0.1623   0.1500 
14    C8      -1.2960  -35.6300   19.8690 C.ar    1  LIG  -0.2723  -0.1500 
15    H5      -2.0662  -35.1073   19.3273 H       1  LIG   0.1522   0.1500 
16    C9      -0.4670  -36.5450   19.2400 C.ar    1  LIG   0.4373   0.1600 
17    H6      -0.5947  -36.7554   18.1915 H       1  LIG   0.0280   0.1500 
18    N3       0.5220  -37.2120   19.8740 N.ar    1  LIG  -0.6893  -0.6200 
19    C10      0.7040  -36.9790   21.1800 C.ar    1  LIG   0.6480   0.4100 
20    N4       1.7670  -37.6730   21.8260 N.pl3   1  LIG  -0.6924  -0.3690 
21    C11      2.7540  -36.8570   22.5840 C.ar    1  LIG   0.5805   0.4100 
22    C12      2.9040  -34.5090   25.6010 C.3     1  LIG  -0.0620   0.1435 
23    H7       2.2235  -33.7630   25.2820 H       1  LIG   0.0570   0.0000 
24    H8       2.4436  -35.1154   26.3371 H       1  LIG   0.0495   0.0000 
25    H9       3.7654  -34.0491   26.0108 H       1  LIG   0.0519   0.0000 
26    O1      -1.2400  -35.9060   23.9770 O.2     1  LIG  -0.6361  -0.5700 
27    C13      2.3440  -38.7570   21.0360 C.3     1  LIG   0.1354   0.0690 
28    H10      3.1238  -38.3754   20.4296 H       1  LIG   0.0981   0.1000 
29    C14      2.9380  -39.8900   21.8010 C.3     1  LIG  -0.1181  -0.2000 
30    H11      3.8890  -40.1268   21.3997 H       1  LIG   0.0732   0.1000 
31    H12      3.0430  -39.6129   22.8177 H       1  LIG   0.0789   0.1000 
32    C15      1.6390  -40.0610   21.0880 C.3     1  LIG  -0.1196  -0.2000 
33    H13      0.6832  -39.9283   21.5242 H       1  LIG   0.0807   0.1000 
34    H14      1.5292  -40.4423   20.1061 H       1  LIG   0.0733   0.1000 
@<TRIPOS>BOND
1     2     1     ar
2     3     2     1
3     4     2     ar
4     5     4     1
5     6     4     ar
6     7     6     ar
7     8     7     1
8     9     8     1
9     10    8     1
10    11    10    1
11    12    11    ar
12    13    12    1
13    14    12    ar
14    15    14    1
15    16    14    ar
16    17    16    1
17    18    16    ar
18    19    11    ar
19    19    18    ar
20    20    19    1
21    21    1     ar
22    21    7     ar
23    21    20    1
24    22    6     1
25    23    22    1
26    24    22    1
27    25    22    1
28    26    10    2
29    27    20    1
30    28    27    1
31    29    27    1
32    30    29    1
33    31    29    1
34    32    27    1
35    32    29    1
36    33    32    1
37    34    32    1
@<TRIPOS>SUBSTRUCTURE
1   LIG    1    
 
########## Name        : 1VRT.lig
########## Description : AM1BCC_CHARGES =  -0.0002 ORIGINAL_CHARGES =  -0.0000

@<TRIPOS>MOLECULE
1VRT.lig
34    37    1     0     0    
SMALL
USER_CHARGES
@<TRIPOS>ATOM
1     N1       4.0540  -36.9310   22.2210 N.ar    1  LIG  -0.6650  -0.6200 
2     C1       4.9660  -36.2380   22.9390 C.ar    1  LIG   0.3947   0.1600 
3     H1       6.0082  -36.2811   22.6707 H       1  LIG   0.0281   0.1500 
4     C2       4.6240  -35.4500   24.0360 C.ar    1  LIG  -0.2334  -0.1500 
5     H2       5.3884  -34.9151   24.5740 H       1  LIG   0.1480   0.1500 
6     C3       3.3050  -35.3690   24.4150 C.ar    1  LIG  -0.0698  -0.1435 
7     C4       2.3460  -36.0770   23.6860 C.ar    1  LIG  -0.0398   0.1170 
8     N2       0.9890  -36.0280   24.1030 N.am    1  LIG  -0.4596  -0.5470 
9     H3       0.7643  -35.9928   25.0860 H       1  LIG   0.3311   0.3700 
10    C5      -0.1450  -36.0180   23.4080 C.2     1  LIG   0.7361   0.5438 
11    C6      -0.1190  -36.0770   21.8860 C.ar    1  LIG  -0.2550   0.0862 
12    C7      -1.1230  -35.3990   21.1890 C.ar    1  LIG  -0.0321  -0.1500 
13    H4      -1.7552  -34.6955   21.7041 H       1  LIG   0.1623   0.1500 
14    C8      -1.2960  -35.6300   19.8690 C.ar    1  LIG  -0.2723  -0.1500 
15    H5      -2.0662  -35.1073   19.3273 H       1  LIG   0.1522   0.1500 
16    C9      -0.4670  -36.5450   19.2400 C.ar    1  LIG   0.4373   0.1600 
17    H6      -0.5947  -36.7554   18.1915 H       1  LIG   0.0280   0.1500 
18    N3       0.5220  -37.2120   19.8740 N.ar    1  LIG  -0.6893  -0.6200 
19    C10      0.7040  -36.9790   21.1800 C.ar    1  LIG   0.6480   0.4100 
20    N4       1.7670  -37.6730   21.8260 N.pl3   1  LIG  -0.6924  -0.3690 
21    C11      2.7540  -36.8570   22.5840 C.ar    1  LIG   0.5805   0.4100 
22    C12      2.9040  -34.5090   25.6010 C.3     1  LIG  -0.0620   0.1435 
23    H7       2.2235  -33.7630   25.2820 H       1  LIG   0.0570   0.0000 
24    H8       2.4436  -35.1154   26.3371 H       1  LIG   0.0495   0.0000 
25    H9       3.7654  -34.0491   26.0108 H       1  LIG   0.0519   0.0000 
26    O1      -1.2400  -35.9060   23.9770 O.2     1  LIG  -0.6361  -0.5700 
27    C13      2.3440  -38.7570   21.0360 C.3     1  LIG   0.1354   0.0690 
28    H10      3.1238  -38.3754   20.4296 H       1  LIG   0.0981   0.1000 
29    C14      2.9380  -39.8900   21.8010 C.3     1  LIG  -0.1181  -0.2000 
30    H11      3.8890  -40.1268   21.3997 H       1  LIG   0.0732   0.1000 
31    H12      3.0430  -39.6129   22.8177 H       1  LIG   0.0789   0.1000 
32    C15      1.6390  -40.0610   21.0880 C.3     1  LIG  -0.1196  -0.2000 
33    H13      0.6832  -39.9283   21.5242 H       1  LIG   0.0807   0.1000 
34    H14      1.5292  -40.4423   20.1061 H       1  LIG   0.0733   0.1000 
@<TRIPOS>BOND
1     2     1     ar
2     3     2     1
3     4     2     ar
4     5     4     1
5     6     4     ar
6     7     6     ar
7     8     7     1
8     9     8     1
9     10    8     1
10    11    10    1
11    12    11    ar
12    13    12    1
13    14    12    ar
14    15    14    1
15    16    14    ar
16    17    16    1
17    18    16    ar
18    19    11    ar
19    19    18    ar
20    20    19    1
21    21    1     ar
22    21    7     ar
23    21    20    1
24    22    6     1
25    23    22    1
26    24    22    1
27    25    22    1
28    26    10    2
29    27    20    1
30    28    27    1
31    29    27    1
32    30    29    1
33    31    29    1
34    32    27    1
35    32    29    1
36    33    32    1
37    34    32    1
@<TRIPOS>SUBSTRUCTURE
1   LIG    1    
 
########## Name        : 1VRT.lig
########## Description : AM1BCC_CHARGES =  -0.0002 ORIGINAL_CHARGES =  -0.0000

@<TRIPOS>MOLECULE
1VRT.lig
34    37    1     0     0    
SMALL
USER_CHARGES
@<TRIPOS>ATOM
1     N1       4.0540  -36.9310   22.2210 N.ar    1  LIG  -0.6650  -0.6200 
2     C1       4.9660  -36.2380   22.9390 C.ar    1  LIG   0.3947   0.1600 
3     H1       6.0082  -36.2811   22.6707 H       1  LIG   0.0281   0.1500 
4     C2       4.6240  -35.4500   24.0360 C.ar    1  LIG  -0.2334  -0.1500 
5     H2       5.3884  -34.9151   24.5740 H       1  LIG   0.1480   0.1500 
6     C3       3.3050  -35.3690   24.4150 C.ar    1  LIG  -0.0698  -0.1435 
7     C4       2.3460  -36.0770   23.6860 C.ar    1  LIG  -0.0398   0.1170 
8     N2       0.9890  -36.0280   24.1030 N.am    1  LIG  -0.4596  -0.5470 
9     H3       0.7643  -35.9928   25.0860 H       1  LIG   0.3311   0.3700 
10    C5      -0.1450  -36.0180   23.4080 C.2     1  LIG   0.7361   0.5438 
11    C6      -0.1190  -36.0770   21.8860 C.ar    1  LIG  -0.2550   0.0862 
12    C7      -1.1230  -35.3990   21.1890 C.ar    1  LIG  -0.0321  -0.1500 
13    H4      -1.7552  -34.6955   21.7041 H       1  LIG   0.1623   0.1500 
14    C8      -1.2960  -35.6300   19.8690 C.ar    1  LIG  -0.2723  -0.1500 
15    H5      -2.0662  -35.1073   19.3273 H       1  LIG   0.1522   0.1500 
16    C9      -0.4670  -36.5450   19.2400 C.ar    1  LIG   0.4373   0.1600 
17    H6      -0.5947  -36.7554   18.1915 H       1  LIG   0.0280   0.1500 
18    N3       0.5220  -37.2120   19.8740 N.ar    1  LIG  -0.6893  -0.6200 
19    C10      0.7040  -36.9790   21.1800 C.ar    1  LIG   0.6480   0.4100 
20    N4       1.7670  -37.6730   21.8260 N.pl3   1  LIG  -0.6924  -0.3690 
21    C11      2.7540  -36.8570   22.5840 C.ar    1  LIG   0.5805   0.4100 
22    C12      2.9040  -34.5090   25.6010 C.3     1  LIG  -0.0620   0.1435 
23    H7       2.2235  -33.7630   25.2820 H       1  LIG   0.0570   0.0000 
24    H8       2.4436  -35.1154   26.3371 H       1  LIG   0.0495   0.0000 
25    H9       3.7654  -34.0491   26.0108 H       1  LIG   0.0519   0.0000 
26    O1      -1.2400  -35.9060   23.9770 O.2     1  LIG  -0.6361  -0.5700 
27    C13      2.3440  -38.7570   21.0360 C.3     1  LIG   0.1354   0.0690 
28    H10      3.1238  -38.3754   20.4296 H       1  LIG   0.0981   0.1000 
29    C14      2.9380  -39.8900   21.8010 C.3     1  LIG  -0.1181  -0.2000 
30    H11      3.8890  -40.1268   21.3997 H       1  LIG   0.0732   0.1000 
31    H12      3.0430  -39.6129   22.8177 H       1  LIG   0.0789   0.1000 
32    C15      1.6390  -40.0610   21.0880 C.3     1  LIG  -0.1196  -0.2000 
33    H13      0.6832  -39.9283   21.5242 H       1  LIG   0.0807   0.1000 
34    H14      1.5292  -40.4423   20.1061 H       1  LIG   0.0733   0.1000 
@<TRIPOS>BOND
1     2     1     ar
2     3     2     1
3     4     2     ar
4     5     4     1
5     6     4     ar
6     7     6     ar
7     8     7     1
8     9     8     1
9     10    8     1
10    11    10    1
11    12    11    ar
12    13    12    1
13    14    12    ar
14    15    14    1
15    16    14    ar
16    17    16    1
17    18    16    ar
18    19    11    ar
19    19    18    ar
20    20    19    1
21    21    1     ar
22    21    7     ar
23    21    20    1
24    22    6     1
25    23    22    1
26    24    22    1
27    25    22    1
28    26    10    2
29    27    20    1
30    28    27    1
31    29    27    1
32    30    29    1
33    31    29    1
34    32    27    1
35    32    29    1
36    33    32    1
37    34    32    1
@<TRIPOS>SUBSTRUCTURE
1   LIG    1    
 
########## Name        : 1VRT.lig
########## Description : AM1BCC_CHARGES =  -0.0002 ORIGINAL_CHARGES =  -0.0000

@<TRIPOS>MOLECULE
1VRT.lig
34    37    1     0     0    
SMALL
USER_CHARGES
@<TRIPOS>ATOM
1     N1       4.0540  -36.9310   22.2210 N.ar    1  LIG  -0.6650  -0.6200 
2     C1       4.9660  -36.2380   22.9390 C.ar    1  LIG   0.3947   0.1600 
3     H1       6.0082  -36.2811   22.6707 H       1  LIG   0.0281   0.1500 
4     C2       4.6240  -35.4500   24.0360 C.ar    1  LIG  -0.2334  -0.1500 
5     H2       5.3884  -34.9151   24.5740 H       1  LIG   0.1480   0.1500 
6     C3       3.3050  -35.3690   24.4150 C.ar    1  LIG  -0.0698  -0.1435 
7     C4       2.3460  -36.0770   23.6860 C.ar    1  LIG  -0.0398   0.1170 
8     N2       0.9890  -36.0280   24.1030 N.am    1  LIG  -0.4596  -0.5470 
9     H3       0.7643  -35.9928   25.0860 H       1  LIG   0.3311   0.3700 
10    C5      -0.1450  -36.0180   23.4080 C.2     1  LIG   0.7361   0.5438 
11    C6      -0.1190  -36.0770   21.8860 C.ar    1  LIG  -0.2550   0.0862 
12    C7      -1.1230  -35.3990   21.1890 C.ar    1  LIG  -0.0321  -0.1500 
13    H4      -1.7552  -34.6955   21.7041 H       1  LIG   0.1623   0.1500 
14    C8      -1.2960  -35.6300   19.8690 C.ar    1  LIG  -0.2723  -0.1500 
15    H5      -2.0662  -35.1073   19.3273 H       1  LIG   0.1522   0.1500 
16    C9      -0.4670  -36.5450   19.2400 C.ar    1  LIG   0.4373   0.1600 
17    H6      -0.5947  -36.7554   18.1915 H       1  LIG   0.0280   0.1500 
18    N3       0.5220  -37.2120   19.8740 N.ar    1  LIG  -0.6893  -0.6200 
19    C10      0.7040  -36.9790   21.1800 C.ar    1  LIG   0.6480   0.4100 
20    N4       1.7670  -37.6730   21.8260 N.pl3   1  LIG  -0.6924  -0.3690 
21    C11      2.7540  -36.8570   22.5840 C.ar    1  LIG   0.5805   0.4100 
22    C12      2.9040  -34.5090   25.6010 C.3     1  LIG  -0.0620   0.1435 
23    H7       2.2235  -33.7630   25.2820 H       1  LIG   0.0570   0.0000 
24    H8       2.4436  -35.1154   26.3371 H       1  LIG   0.0495   0.0000 
25    H9       3.7654  -34.0491   26.0108 H       1  LIG   0.0519   0.0000 
26    O1      -1.2400  -35.9060   23.9770 O.2     1  LIG  -0.6361  -0.5700 
27    C13      2.3440  -38.7570   21.0360 C.3     1  LIG   0.1354   0.0690 
28    H10      3.1238  -38.3754   20.4296 H       1  LIG   0.0981   0.1000 
29    C14      2.9380  -39.8900   21.8010 C.3     1  LIG  -0.1181  -0.2000 
30    H11      3.8890  -40.1268   21.3997 H       1  LIG   0.0732   0.1000 
31    H12      3.0430  -39.6129   22.8177 H       1  LIG   0.0789   0.1000 
32    C15      1.6390  -40.0610   21.0880 C.3     1  LIG  -0.1196  -0.2000 
33    H13      0.6832  -39.9283   21.5242 H       1  LIG   0.0807   0.1000 
34    H14      1.5292  -40.4423   20.1061 H       1  LIG   0.0733   0.1000 
@<TRIPOS>BOND
1     2     1     ar
2     3     2     1
3     4     2     ar
4     5     4     1
5     6     4     ar
6     7     6     ar
7     8     7     1
8     9     8     1
9     10    8     1
10    11    10    1
11    12    11    ar
12    13    12    1
13    14    12    ar
14    15    14    1
15    16    14    ar
16    17    16    1
17    18    16    ar
18    19    11    ar
19    19    18    ar
20    20    19    1
21    21    1     ar
22    21    7     ar
23    21    20    1
24    22    6     1
25    23    22    1
26    24    22    1
27    25    22    1
28    26    10    2
29    27    20    1
30    28    27    1
31    29    27    1
32    30    29    1
33    31    29    1
34    32    27    1
35    32    29    1
36    33    32    1
37    34    32    1
@<TRIPOS>SUBSTRUCTURE
1   LIG    1    
 
########## Name        : 1VRT.lig
########## Description : AM1BCC_CHARGES =  -0.0002 ORIGINAL_CHARGES =  -0.0000

@<TRIPOS>MOLECULE
1VRT.lig
34    37    1     0     0    
SMALL
USER_CHARGES
@<TRIPOS>ATOM
1     N1       4.0540  -36.9310   22.2210 N.ar    1  LIG  -0.6650  -0.6200 
2     C1       4.9660  -36.2380   22.9390 C.ar    1  LIG   0.3947   0.1600 
3     H1       6.0082  -36.2811   22.6707 H       1  LIG   0.0281   0.1500 
4     C2       4.6240  -35.4500   24.0360 C.ar    1  LIG  -0.2334  -0.1500 
5     H2       5.3884  -34.9151   24.5740 H       1  LIG   0.1480   0.1500 
6     C3       3.3050  -35.3690   24.4150 C.ar    1  LIG  -0.0698  -0.1435 
7     C4       2.3460  -36.0770   23.6860 C.ar    1  LIG  -0.0398   0.1170 
8     N2       0.9890  -36.0280   24.1030 N.am    1  LIG  -0.4596  -0.5470 
9     H3       0.7643  -35.9928   25.0860 H       1  LIG   0.3311   0.3700 
10    C5      -0.1450  -36.0180   23.4080 C.2     1  LIG   0.7361   0.5438 
11    C6      -0.1190  -36.0770   21.8860 C.ar    1  LIG  -0.2550   0.0862 
12    C7      -1.1230  -35.3990   21.1890 C.ar    1  LIG  -0.0321  -0.1500 
13    H4      -1.7552  -34.6955   21.7041 H       1  LIG   0.1623   0.1500 
14    C8      -1.2960  -35.6300   19.8690 C.ar    1  LIG  -0.2723  -0.1500 
15    H5      -2.0662  -35.1073   19.3273 H       1  LIG   0.1522   0.1500 
16    C9      -0.4670  -36.5450   19.2400 C.ar    1  LIG   0.4373   0.1600 
17    H6      -0.5947  -36.7554   18.1915 H       1  LIG   0.0280   0.1500 
18    N3       0.5220  -37.2120   19.8740 N.ar    1  LIG  -0.6893  -0.6200 
19    C10      0.7040  -36.9790   21.1800 C.ar    1  LIG   0.6480   0.4100 
20    N4       1.7670  -37.6730   21.8260 N.pl3   1  LIG  -0.6924  -0.3690 
21    C11      2.7540  -36.8570   22.5840 C.ar    1  LIG   0.5805   0.4100 
22    C12      2.9040  -34.5090   25.6010 C.3     1  LIG  -0.0620   0.1435 
23    H7       2.2235  -33.7630   25.2820 H       1  LIG   0.0570   0.0000 
24    H8       2.4436  -35.1154   26.3371 H       1  LIG   0.0495   0.0000 
25    H9       3.7654  -34.0491   26.0108 H       1  LIG   0.0519   0.0000 
26    O1      -1.2400  -35.9060   23.9770 O.2     1  LIG  -0.6361  -0.5700 
27    C13      2.3440  -38.7570   21.0360 C.3     1  LIG   0.1354   0.0690 
28    H10      3.1238  -38.3754   20.4296 H       1  LIG   0.0981   0.1000 
29    C14      2.9380  -39.8900   21.8010 C.3     1  LIG  -0.1181  -0.2000 
30    H11      3.8890  -40.1268   21.3997 H       1  LIG   0.0732   0.1000 
31    H12      3.0430  -39.6129   22.8177 H       1  LIG   0.0789   0.1000 
32    C15      1.6390  -40.0610   21.0880 C.3     1  LIG  -0.1196  -0.2000 
33    H13      0.6832  -39.9283   21.5242 H       1  LIG   0.0807   0.1000 
34    H14      1.5292  -40.4423   20.1061 H       1  LIG   0.0733   0.1000 
@<TRIPOS>BOND
1     2     1     ar
2     3     2     1
3     4     2     ar
4     5     4     1
5     6     4     ar
6     7     6     ar
7     8     7     1
8     9     8     1
9     10    8     1
10    11    10    1
11    12    11    ar
12    13    12    1
13    14    12    ar
14    15    14    1
15    16    14    ar
16    17    16    1
17    18    16    ar
18    19    11    ar
19    19    18    ar
20    20    19    1
21    21    1     ar
22    21    7     ar
23    21    20    1
24    22    6     1
25    23    22    1
26    24    22    1
27    25    22    1
28    26    10    2
29    27    20    1
30    28    27    1
31    29    27    1
32    30    29    1
33    31    29    1
34    32    27    1
35    32    29    1
36    33    32    1
37    34    32    1
@<TRIPOS>SUBSTRUCTURE
1   LIG    1    
 
########## Name        : 1VRT.lig
########## Description : AM1BCC_CHARGES =  -0.0002 ORIGINAL_CHARGES =  -0.0000

@<TRIPOS>MOLECULE
1VRT.lig
34    37    1     0     0    
SMALL
USER_CHARGES
@<TRIPOS>ATOM
1     N1       4.0540  -36.9310   22.2210 N.ar    1  LIG  -0.6650  -0.6200 
2     C1       4.9660  -36.2380   22.9390 C.ar    1  LIG   0.3947   0.1600 
3     H1       6.0082  -36.2811   22.6707 H       1  LIG   0.0281   0.1500 
4     C2       4.6240  -35.4500   24.0360 C.ar    1  LIG  -0.2334  -0.1500 
5     H2       5.3884  -34.9151   24.5740 H       1  LIG   0.1480   0.1500 
6     C3       3.3050  -35.3690   24.4150 C.ar    1  LIG  -0.0698  -0.1435 
7     C4       2.3460  -36.0770   23.6860 C.ar    1  LIG  -0.0398   0.1170 
8     N2       0.9890  -36.0280   24.1030 N.am    1  LIG  -0.4596  -0.5470 
9     H3       0.7643  -35.9928   25.0860 H       1  LIG   0.3311   0.3700 
10    C5      -0.1450  -36.0180   23.4080 C.2     1  LIG   0.7361   0.5438 
11    C6      -0.1190  -36.0770   21.8860 C.ar    1  LIG  -0.2550   0.0862 
12    C7      -1.1230  -35.3990   21.1890 C.ar    1  LIG  -0.0321  -0.1500 
13    H4      -1.7552  -34.6955   21.7041 H       1  LIG   0.1623   0.1500 
14    C8      -1.2960  -35.6300   19.8690 C.ar    1  LIG  -0.2723  -0.1500 
15    H5      -2.0662  -35.1073   19.3273 H       1  LIG   0.1522   0.1500 
16    C9      -0.4670  -36.5450   19.2400 C.ar    1  LIG   0.4373   0.1600 
17    H6      -0.5947  -36.7554   18.1915 H       1  LIG   0.0280   0.1500 
18    N3       0.5220  -37.2120   19.8740 N.ar    1  LIG  -0.6893  -0.6200 
19    C10      0.7040  -36.9790   21.1800 C.ar    1  LIG   0.6480   0.4100 
20    N4       1.7670  -37.6730   21.8260 N.pl3   1  LIG  -0.6924  -0.3690 
21    C11      2.7540  -36.8570   22.5840 C.ar    1  LIG   0.5805   0.4100 
22    C12      2.9040  -34.5090   25.6010 C.3     1  LIG  -0.0620   0.1435 
23    H7       2.2235  -33.7630   25.2820 H       1  LIG   0.0570   0.0000 
24    H8       2.4436  -35.1154   26.3371 H       1  LIG   0.0495   0.0000 
25    H9       3.7654  -34.0491   26.0108 H       1  LIG   0.0519   0.0000 
26    O1      -1.2400  -35.9060   23.9770 O.2     1  LIG  -0.6361  -0.5700 
27    C13      2.3440  -38.7570   21.0360 C.3     1  LIG   0.1354   0.0690 
28    H10      3.1238  -38.3754   20.4296 H       1  LIG   0.0981   0.1000 
29    C14      2.9380  -39.8900   21.8010 C.3     1  LIG  -0.1181  -0.2000 
30    H11      3.8890  -40.1268   21.3997 H       1  LIG   0.0732   0.1000 
31    H12      3.0430  -39.6129   22.8177 H       1  LIG   0.0789   0.1000 
32    C15      1.6390  -40.0610   21.0880 C.3     1  LIG  -0.1196  -0.2000 
33    H13      0.6832  -39.9283   21.5242 H       1  LIG   0.0807   0.1000 
34    H14      1.5292  -40.4423   20.1061 H       1  LIG   0.0733   0.1000 
@<TRIPOS>BOND
1     2     1     ar
2     3     2     1
3     4     2     ar
4     5     4     1
5     6     4     ar
6     7     6     ar
7     8     7     1
8     9     8     1
9     10    8     1
10    11    10    1
11    12    11    ar
12    13    12    1
13    14    12    ar
14    15    14    1
15    16    14    ar
16    17    16    1
17    18    16    ar
18    19    11    ar
19    19    18    ar
20    20    19    1
21    21    1     ar
22    21    7     ar
23    21    20    1
24    22    6     1
25    23    22    1
26    24    22    1
27    25    22    1
28    26    10    2
29    27    20    1
30    28    27    1
31    29    27    1
32    30    29    1
33    31    29    1
34    32    27    1
35    32    29    1
36    33    32    1
37    34    32    1
@<TRIPOS>SUBSTRUCTURE
1   LIG    1    
 
########## Name        : 1VRT.lig
########## Description : AM1BCC_CHARGES =  -0.0002 ORIGINAL_CHARGES =  -0.0000

@<TRIPOS>MOLECULE
1VRT.lig
34    37    1     0     0    
SMALL
USER_CHARGES
@<TRIPOS>ATOM
1     N1       4.0540  -36.9310   22.2210 N.ar    1  LIG  -0.6650  -0.6200 
2     C1       4.9660  -36.2380   22.9390 C.ar    1  LIG   0.3947   0.1600 
3     H1       6.0082  -36.2811   22.6707 H       1  LIG   0.0281   0.1500 
4     C2       4.6240  -35.4500   24.0360 C.ar    1  LIG  -0.2334  -0.1500 
5     H2       5.3884  -34.9151   24.5740 H       1  LIG   0.1480   0.1500 
6     C3       3.3050  -35.3690   24.4150 C.ar    1  LIG  -0.0698  -0.1435 
7     C4       2.3460  -36.0770   23.6860 C.ar    1  LIG  -0.0398   0.1170 
8     N2       0.9890  -36.0280   24.1030 N.am    1  LIG  -0.4596  -0.5470 
9     H3       0.7643  -35.9928   25.0860 H       1  LIG   0.3311   0.3700 
10    C5      -0.1450  -36.0180   23.4080 C.2     1  LIG   0.7361   0.5438 
11    C6      -0.1190  -36.0770   21.8860 C.ar    1  LIG  -0.2550   0.0862 
12    C7      -1.1230  -35.3990   21.1890 C.ar    1  LIG  -0.0321  -0.1500 
13    H4      -1.7552  -34.6955   21.7041 H       1  LIG   0.1623   0.1500 
14    C8      -1.2960  -35.6300   19.8690 C.ar    1  LIG  -0.2723  -0.1500 
15    H5      -2.0662  -35.1073   19.3273 H       1  LIG   0.1522   0.1500 
16    C9      -0.4670  -36.5450   19.2400 C.ar    1  LIG   0.4373   0.1600 
17    H6      -0.5947  -36.7554   18.1915 H       1  LIG   0.0280   0.1500 
18    N3       0.5220  -37.2120   19.8740 N.ar    1  LIG  -0.6893  -0.6200 
19    C10      0.7040  -36.9790   21.1800 C.ar    1  LIG   0.6480   0.4100 
20    N4       1.7670  -37.6730   21.8260 N.pl3   1  LIG  -0.6924  -0.3690 
21    C11      2.7540  -36.8570   22.5840 C.ar    1  LIG   0.5805   0.4100 
22    C12      2.9040  -34.5090   25.6010 C.3     1  LIG  -0.0620   0.1435 
23    H7       2.2235  -33.7630   25.2820 H       1  LIG   0.0570   0.0000 
24    H8       2.4436  -35.1154   26.3371 H       1  LIG   0.0495   0.0000 
25    H9       3.7654  -34.0491   26.0108 H       1  LIG   0.0519   0.0000 
26    O1      -1.2400  -35.9060   23.9770 O.2     1  LIG  -0.6361  -0.5700 
27    C13      2.3440  -38.7570   21.0360 C.3     1  LIG   0.1354   0.0690 
28    H10      3.1238  -38.3754   20.4296 H       1  LIG   0.0981   0.1000 
29    C14      2.9380  -39.8900   21.8010 C.3     1  LIG  -0.1181  -0.2000 
30    H11      3.8890  -40.1268   21.3997 H       1  LIG   0.0732   0.1000 
31    H12      3.0430  -39.6129   22.8177 H       1  LIG   0.0789   0.1000 
32    C15      1.6390  -40.0610   21.0880 C.3     1  LIG  -0.1196  -0.2000 
33    H13      0.6832  -39.9283   21.5242 H       1  LIG   0.0807   0.1000 
34    H14      1.5292  -40.4423   20.1061 H       1  LIG   0.0733   0.1000 
@<TRIPOS>BOND
1     2     1     ar
2     3     2     1
3     4     2     ar
4     5     4     1
5     6     4     ar
6     7     6     ar
7     8     7     1
8     9     8     1
9     10    8     1
10    11    10    1
11    12    11    ar
12    13    12    1
13    14    12    ar
14    15    14    1
15    16    14    ar
16    17    16    1
17    18    16    ar
18    19    11    ar
19    19    18    ar
20    20    19    1
21    21    1     ar
22    21    7     ar
23    21    20    1
24    22    6     1
25    23    22    1
26    24    22    1
27    25    22    1
28    26    10    2
29    27    20    1
30    28    27    1
31    29    27    1
32    30    29    1
33    31    29    1
34    32    27    1
35    32    29    1
36    33    32    1
37    34    32    1
@<TRIPOS>SUBSTRUCTURE
1   LIG    1    
 
########## Name        : 1VRT.lig
########## Description : AM1BCC_CHARGES =  -0.0002 ORIGINAL_CHARGES =  -0.0000

@<TRIPOS>MOLECULE
1VRT.lig
34    37    1     0     0    
SMALL
USER_CHARGES
@<TRIPOS>ATOM
1     N1       4.0540  -36.9310   22.2210 N.ar    1  LIG  -0.6650  -0.6200 
2     C1       4.9660  -36.2380   22.9390 C.ar    1  LIG   0.3947   0.1600 
3     H1       6.0082  -36.2811   22.6707 H       1  LIG   0.0281   0.1500 
4     C2       4.6240  -35.4500   24.0360 C.ar    1  LIG  -0.2334  -0.1500 
5     H2       5.3884  -34.9151   24.5740 H       1  LIG   0.1480   0.1500 
6     C3       3.3050  -35.3690   24.4150 C.ar    1  LIG  -0.0698  -0.1435 
7     C4       2.3460  -36.0770   23.6860 C.ar    1  LIG  -0.0398   0.1170 
8     N2       0.9890  -36.0280   24.1030 N.am    1  LIG  -0.4596  -0.5470 
9     H3       0.7643  -35.9928   25.0860 H       1  LIG   0.3311   0.3700 
10    C5      -0.1450  -36.0180   23.4080 C.2     1  LIG   0.7361   0.5438 
11    C6      -0.1190  -36.0770   21.8860 C.ar    1  LIG  -0.2550   0.0862 
12    C7      -1.1230  -35.3990   21.1890 C.ar    1  LIG  -0.0321  -0.1500 
13    H4      -1.7552  -34.6955   21.7041 H       1  LIG   0.1623   0.1500 
14    C8      -1.2960  -35.6300   19.8690 C.ar    1  LIG  -0.2723  -0.1500 
15    H5      -2.0662  -35.1073   19.3273 H       1  LIG   0.1522   0.1500 
16    C9      -0.4670  -36.5450   19.2400 C.ar    1  LIG   0.4373   0.1600 
17    H6      -0.5947  -36.7554   18.1915 H       1  LIG   0.0280   0.1500 
18    N3       0.5220  -37.2120   19.8740 N.ar    1  LIG  -0.6893  -0.6200 
19    C10      0.7040  -36.9790   21.1800 C.ar    1  LIG   0.6480   0.4100 
20    N4       1.7670  -37.6730   21.8260 N.pl3   1  LIG  -0.6924  -0.3690 
21    C11      2.7540  -36.8570   22.5840 C.ar    1  LIG   0.5805   0.4100 
22    C12      2.9040  -34.5090   25.6010 C.3     1  LIG  -0.0620   0.1435 
23    H7       2.2235  -33.7630   25.2820 H       1  LIG   0.0570   0.0000 
24    H8       2.4436  -35.1154   26.3371 H       1  LIG   0.0495   0.0000 
25    H9       3.7654  -34.0491   26.0108 H       1  LIG   0.0519   0.0000 
26    O1      -1.2400  -35.9060   23.9770 O.2     1  LIG  -0.6361  -0.5700 
27    C13      2.3440  -38.7570   21.0360 C.3     1  LIG   0.1354   0.0690 
28    H10      3.1238  -38.3754   20.4296 H       1  LIG   0.0981   0.1000 
29    C14      2.9380  -39.8900   21.8010 C.3     1  LIG  -0.1181  -0.2000 
30    H11      3.8890  -40.1268   21.3997 H       1  LIG   0.0732   0.1000 
31    H12      3.0430  -39.6129   22.8177 H       1  LIG   0.0789   0.1000 
32    C15      1.6390  -40.0610   21.0880 C.3     1  LIG  -0.1196  -0.2000 
33    H13      0.6832  -39.9283   21.5242 H       1  LIG   0.0807   0.1000 
34    H14      1.5292  -40.4423   20.1061 H       1  LIG   0.0733   0.1000 
@<TRIPOS>BOND
1     2     1     ar
2     3     2     1
3     4     2     ar
4     5     4     1
5     6     4     ar
6     7     6     ar
7     8     7     1
8     9     8     1
9     10    8     1
10    11    10    1
11    12    11    ar
12    13    12    1
13    14    12    ar
14    15    14    1
15    16    14    ar
16    17    16    1
17    18    16    ar
18    19    11    ar
19    19    18    ar
20    20    19    1
21    21    1     ar
22    21    7     ar
23    21    20    1
24    22    6     1
25    23    22    1
26    24    22    1
27    25    22    1
28    26    10    2
29    27    20    1
30    28    27    1
31    29    27    1
32    30    29    1
33    31    29    1
34    32    27    1
35    32    29    1
36    33    32    1
37    34    32    1
@<TRIPOS>SUBSTRUCTURE
1   LIG    1    
 
########## Name        : 1VRT.lig
########## Description : AM1BCC_CHARGES =  -0.0002 ORIGINAL_CHARGES =  -0.0000

@<TRIPOS>MOLECULE
1VRT.lig
34    37    1     0     0    
SMALL
USER_CHARGES
@<TRIPOS>ATOM
1     N1       4.0540  -36.9310   22.2210 N.ar    1  LIG  -0.6650  -0.6200 
2     C1       4.9660  -36.2380   22.9390 C.ar    1  LIG   0.3947   0.1600 
3     H1       6.0082  -36.2811   22.6707 H       1  LIG   0.0281   0.1500 
4     C2       4.6240  -35.4500   24.0360 C.ar    1  LIG  -0.2334  -0.1500 
5     H2       5.3884  -34.9151   24.5740 H       1  LIG   0.1480   0.1500 
6     C3       3.3050  -35.3690   24.4150 C.ar    1  LIG  -0.0698  -0.1435 
7     C4       2.3460  -36.0770   23.6860 C.ar    1  LIG  -0.0398   0.1170 
8     N2       0.9890  -36.0280   24.1030 N.am    1  LIG  -0.4596  -0.5470 
9     H3       0.7643  -35.9928   25.0860 H       1  LIG   0.3311   0.3700 
10    C5      -0.1450  -36.0180   23.4080 C.2     1  LIG   0.7361   0.5438 
11    C6      -0.1190  -36.0770   21.8860 C.ar    1  LIG  -0.2550   0.0862 
12    C7      -1.1230  -35.3990   21.1890 C.ar    1  LIG  -0.0321  -0.1500 
13    H4      -1.7552  -34.6955   21.7041 H       1  LIG   0.1623   0.1500 
14    C8      -1.2960  -35.6300   19.8690 C.ar    1  LIG  -0.2723  -0.1500 
15    H5      -2.0662  -35.1073   19.3273 H       1  LIG   0.1522   0.1500 
16    C9      -0.4670  -36.5450   19.2400 C.ar    1  LIG   0.4373   0.1600 
17    H6      -0.5947  -36.7554   18.1915 H       1  LIG   0.0280   0.1500 
18    N3       0.5220  -37.2120   19.8740 N.ar    1  LIG  -0.6893  -0.6200 
19    C10      0.7040  -36.9790   21.1800 C.ar    1  LIG   0.6480   0.4100 
20    N4       1.7670  -37.6730   21.8260 N.pl3   1  LIG  -0.6924  -0.3690 
21    C11      2.7540  -36.8570   22.5840 C.ar    1  LIG   0.5805   0.4100 
22    C12      2.9040  -34.5090   25.6010 C.3     1  LIG  -0.0620   0.1435 
23    H7       2.2235  -33.7630   25.2820 H       1  LIG   0.0570   0.0000 
24    H8       2.4436  -35.1154   26.3371 H       1  LIG   0.0495   0.0000 
25    H9       3.7654  -34.0491   26.0108 H       1  LIG   0.0519   0.0000 
26    O1      -1.2400  -35.9060   23.9770 O.2     1  LIG  -0.6361  -0.5700 
27    C13      2.3440  -38.7570   21.0360 C.3     1  LIG   0.1354   0.0690 
28    H10      3.1238  -38.3754   20.4296 H       1  LIG   0.0981   0.1000 
29    C14      2.9380  -39.8900   21.8010 C.3     1  LIG  -0.1181  -0.2000 
30    H11      3.8890  -40.1268   21.3997 H       1  LIG   0.0732   0.1000 
31    H12      3.0430  -39.6129   22.8177 H       1  LIG   0.0789   0.1000 
32    C15      1.6390  -40.0610   21.0880 C.3     1  LIG  -0.1196  -0.2000 
33    H13      0.6832  -39.9283   21.5242 H       1  LIG   0.0807   0.1000 
34    H14      1.5292  -40.4423   20.1061 H       1  LIG   0.0733   0.1000 
@<TRIPOS>BOND
1     2     1     ar
2     3     2     1
3     4     2     ar
4     5     4     1
5     6     4     ar
6     7     6     ar
7     8     7     1
8     9     8     1
9     10    8     1
10    11    10    1
11    12    11    ar
12    13    12    1
13    14    12    ar
14    15    14    1
15    16    14    ar
16    17    16    1
17    18    16    ar
18    19    11    ar
19    19    18    ar
20    20    19    1
21    21    1     ar
22    21    7     ar
23    21    20    1
24    22    6     1
25    23    22    1
26    24    22    1
27    25    22    1
28    26    10    2
29    27    20    1
30    28    27    1
31    29    27    1
32    30    29    1
33    31    29    1
34    32    27    1
35    32    29    1
36    33    32    1
37    34    32    1
@<TRIPOS>SUBSTRUCTURE
1   LIG    1    
 
########## Name        : 1VRT.lig
########## Description : AM1BCC_CHARGES =  -0.0002 ORIGINAL_CHARGES =  -0.0000

@<TRIPOS>MOLECULE
1VRT.lig
34    37    1     0     0    
SMALL
USER_CHARGES
@<TRIPOS>ATOM
1     N1       4.0540  -36.9310   22.2210 N.ar    1  LIG  -0.6650  -0.6200 
2     C1       4.9660  -36.2380   22.9390 C.ar    1  LIG   0.3947   0.1600 
3     H1       6.0082  -36.2811   22.6707 H       1  LIG   0.0281   0.1500 
4     C2       4.6240  -35.4500   24.0360 C.ar    1  LIG  -0.2334  -0.1500 
5     H2       5.3884  -34.9151   24.5740 H       1  LIG   0.1480   0.1500 
6     C3       3.3050  -35.3690   24.4150 C.ar    1  LIG  -0.0698  -0.1435 
7     C4       2.3460  -36.0770   23.6860 C.ar    1  LIG  -0.0398   0.1170 
8     N2       0.9890  -36.0280   24.1030 N.am    1  LIG  -0.4596  -0.5470 
9     H3       0.7643  -35.9928   25.0860 H       1  LIG   0.3311   0.3700 
10    C5      -0.1450  -36.0180   23.4080 C.2     1  LIG   0.7361   0.5438 
11    C6      -0.1190  -36.0770   21.8860 C.ar    1  LIG  -0.2550   0.0862 
12    C7      -1.1230  -35.3990   21.1890 C.ar    1  LIG  -0.0321  -0.1500 
13    H4      -1.7552  -34.6955   21.7041 H       1  LIG   0.1623   0.1500 
14    C8      -1.2960  -35.6300   19.8690 C.ar    1  LIG  -0.2723  -0.1500 
15    H5      -2.0662  -35.1073   19.3273 H       1  LIG   0.1522   0.1500 
16    C9      -0.4670  -36.5450   19.2400 C.ar    1  LIG   0.4373   0.1600 
17    H6      -0.5947  -36.7554   18.1915 H       1  LIG   0.0280   0.1500 
18    N3       0.5220  -37.2120   19.8740 N.ar    1  LIG  -0.6893  -0.6200 
19    C10      0.7040  -36.9790   21.1800 C.ar    1  LIG   0.6480   0.4100 
20    N4       1.7670  -37.6730   21.8260 N.pl3   1  LIG  -0.6924  -0.3690 
21    C11      2.7540  -36.8570   22.5840 C.ar    1  LIG   0.5805   0.4100 
22    C12      2.9040  -34.5090   25.6010 C.3     1  LIG  -0.0620   0.1435 
23    H7       2.2235  -33.7630   25.2820 H       1  LIG   0.0570   0.0000 
24    H8       2.4436  -35.1154   26.3371 H       1  LIG   0.0495   0.0000 
25    H9       3.7654  -34.0491   26.0108 H       1  LIG   0.0519   0.0000 
26    O1      -1.2400  -35.9060   23.9770 O.2     1  LIG  -0.6361  -0.5700 
27    C13      2.3440  -38.7570   21.0360 C.3     1  LIG   0.1354   0.0690 
28    H10      3.1238  -38.3754   20.4296 H       1  LIG   0.0981   0.1000 
29    C14      2.9380  -39.8900   21.8010 C.3     1  LIG  -0.1181  -0.2000 
30    H11      3.8890  -40.1268   21.3997 H       1  LIG   0.0732   0.1000 
31    H12      3.0430  -39.6129   22.8177 H       1  LIG   0.0789   0.1000 
32    C15      1.6390  -40.0610   21.0880 C.3     1  LIG  -0.1196  -0.2000 
33    H13      0.6832  -39.9283   21.5242 H       1  LIG   0.0807   0.1000 
34    H14      1.5292  -40.4423   20.1061 H       1  LIG   0.0733   0.1000 
@<TRIPOS>BOND
1     2     1     ar
2     3     2     1
3     4     2     ar
4     5     4     1
5     6     4     ar
6     7     6     ar
7     8     7     1
8     9     8     1
9     10    8     1
10    11    10    1
11    12    11    ar
12    13    12    1
13    14    12    ar
14    15    14    1
15    16    14    ar
16    17    16    1
17    18    16    ar
18    19    11    ar
19    19    18    ar
20    20    19    1
21    21    1     ar
22    21    7     ar
23    21    20    1
24    22    6     1
25    23    22    1
26    24    22    1
27    25    22    1
28    26    10    2
29    27    20    1
30    28    27    1
31    29    27    1
32    30    29    1
33    31    29    1
34    32    27    1
35    32    29    1
36    33    32    1
37    34    32    1
@<TRIPOS>SUBSTRUCTURE
1   LIG    1    
 
########## Name        : 1VRT.lig
########## Description : AM1BCC_CHARGES =  -0.0002 ORIGINAL_CHARGES =  -0.0000

@<TRIPOS>MOLECULE
1VRT.lig
34    37    1     0     0    
SMALL
USER_CHARGES
@<TRIPOS>ATOM
1     N1       4.0540  -36.9310   22.2210 N.ar    1  LIG  -0.6650  -0.6200 
2     C1       4.9660  -36.2380   22.9390 C.ar    1  LIG   0.3947   0.1600 
3     H1       6.0082  -36.2811   22.6707 H       1  LIG   0.0281   0.1500 
4     C2       4.6240  -35.4500   24.0360 C.ar    1  LIG  -0.2334  -0.1500 
5     H2       5.3884  -34.9151   24.5740 H       1  LIG   0.1480   0.1500 
6     C3       3.3050  -35.3690   24.4150 C.ar    1  LIG  -0.0698  -0.1435 
7     C4       2.3460  -36.0770   23.6860 C.ar    1  LIG  -0.0398   0.1170 
8     N2       0.9890  -36.0280   24.1030 N.am    1  LIG  -0.4596  -0.5470 
9     H3       0.7643  -35.9928   25.0860 H       1  LIG   0.3311   0.3700 
10    C5      -0.1450  -36.0180   23.4080 C.2     1  LIG   0.7361   0.5438 
11    C6      -0.1190  -36.0770   21.8860 C.ar    1  LIG  -0.2550   0.0862 
12    C7      -1.1230  -35.3990   21.1890 C.ar    1  LIG  -0.0321  -0.1500 
13    H4      -1.7552  -34.6955   21.7041 H       1  LIG   0.1623   0.1500 
14    C8      -1.2960  -35.6300   19.8690 C.ar    1  LIG  -0.2723  -0.1500 
15    H5      -2.0662  -35.1073   19.3273 H       1  LIG   0.1522   0.1500 
16    C9      -0.4670  -36.5450   19.2400 C.ar    1  LIG   0.4373   0.1600 
17    H6      -0.5947  -36.7554   18.1915 H       1  LIG   0.0280   0.1500 
18    N3       0.5220  -37.2120   19.8740 N.ar    1  LIG  -0.6893  -0.6200 
19    C10      0.7040  -36.9790   21.1800 C.ar    1  LIG   0.6480   0.4100 
20    N4       1.7670  -37.6730   21.8260 N.pl3   1  LIG  -0.6924  -0.3690 
21    C11      2.7540  -36.8570   22.5840 C.ar    1  LIG   0.5805   0.4100 
22    C12      2.9040  -34.5090   25.6010 C.3     1  LIG  -0.0620   0.1435 
23    H7       2.2235  -33.7630   25.2820 H       1  LIG   0.0570   0.0000 
24    H8       2.4436  -35.1154   26.3371 H       1  LIG   0.0495   0.0000 
25    H9       3.7654  -34.0491   26.0108 H       1  LIG   0.0519   0.0000 
26    O1      -1.2400  -35.9060   23.9770 O.2     1  LIG  -0.6361  -0.5700 
27    C13      2.3440  -38.7570   21.0360 C.3     1  LIG   0.1354   0.0690 
28    H10      3.1238  -38.3754   20.4296 H       1  LIG   0.0981   0.1000 
29    C14      2.9380  -39.8900   21.8010 C.3     1  LIG  -0.1181  -0.2000 
30    H11      3.8890  -40.1268   21.3997 H       1  LIG   0.0732   0.1000 
31    H12      3.0430  -39.6129   22.8177 H       1  LIG   0.0789   0.1000 
32    C15      1.6390  -40.0610   21.0880 C.3     1  LIG  -0.1196  -0.2000 
33    H13      0.6832  -39.9283   21.5242 H       1  LIG   0.0807   0.1000 
34    H14      1.5292  -40.4423   20.1061 H       1  LIG   0.0733   0.1000 
@<TRIPOS>BOND
1     2     1     ar
2     3     2     1
3     4     2     ar
4     5     4     1
5     6     4     ar
6     7     6     ar
7     8     7     1
8     9     8     1
9     10    8     1
10    11    10    1
11    12    11    ar
12    13    12    1
13    14    12    ar
14    15    14    1
15    16    14    ar
16    17    16    1
17    18    16    ar
18    19    11    ar
19    19    18    ar
20    20    19    1
21    21    1     ar
22    21    7     ar
23    21    20    1
24    22    6     1
25    23    22    1
26    24    22    1
27    25    22    1
28    26    10    2
29    27    20    1
30    28    27    1
31    29    27    1
32    30    29    1
33    31    29    1
34    32    27    1
35    32    29    1
36    33    32    1
37    34    32    1
@<TRIPOS>SUBSTRUCTURE
1   LIG    1    
 
########## Name        : 1VRT.lig
########## Description : AM1BCC_CHARGES =  -0.0002 ORIGINAL_CHARGES =  -0.0000

@<TRIPOS>MOLECULE
1VRT.lig
34    37    1     0     0    
SMALL
USER_CHARGES
@<TRIPOS>ATOM
1     N1       4.0540  -36.9310   22.2210 N.ar    1  LIG  -0.6650  -0.6200 
2     C1       4.9660  -36.2380   22.9390 C.ar    1  LIG   0.3947   0.1600 
3     H1       6.0082  -36.2811   22.6707 H       1  LIG   0.0281   0.1500 
4     C2       4.6240  -35.4500   24.0360 C.ar    1  LIG  -0.2334  -0.1500 
5     H2       5.3884  -34.9151   24.5740 H       1  LIG   0.1480   0.1500 
6     C3       3.3050  -35.3690   24.4150 C.ar    1  LIG  -0.0698  -0.1435 
7     C4       2.3460  -36.0770   23.6860 C.ar    1  LIG  -0.0398   0.1170 
8     N2       0.9890  -36.0280   24.1030 N.am    1  LIG  -0.4596  -0.5470 
9     H3       0.7643  -35.9928   25.0860 H       1  LIG   0.3311   0.3700 
10    C5      -0.1450  -36.0180   23.4080 C.2     1  LIG   0.7361   0.5438 
11    C6      -0.1190  -36.0770   21.8860 C.ar    1  LIG  -0.2550   0.0862 
12    C7      -1.1230  -35.3990   21.1890 C.ar    1  LIG  -0.0321  -0.1500 
13    H4      -1.7552  -34.6955   21.7041 H       1  LIG   0.1623   0.1500 
14    C8      -1.2960  -35.6300   19.8690 C.ar    1  LIG  -0.2723  -0.1500 
15    H5      -2.0662  -35.1073   19.3273 H       1  LIG   0.1522   0.1500 
16    C9      -0.4670  -36.5450   19.2400 C.ar    1  LIG   0.4373   0.1600 
17    H6      -0.5947  -36.7554   18.1915 H       1  LIG   0.0280   0.1500 
18    N3       0.5220  -37.2120   19.8740 N.ar    1  LIG  -0.6893  -0.6200 
19    C10      0.7040  -36.9790   21.1800 C.ar    1  LIG   0.6480   0.4100 
20    N4       1.7670  -37.6730   21.8260 N.pl3   1  LIG  -0.6924  -0.3690 
21    C11      2.7540  -36.8570   22.5840 C.ar    1  LIG   0.5805   0.4100 
22    C12      2.9040  -34.5090   25.6010 C.3     1  LIG  -0.0620   0.1435 
23    H7       2.2235  -33.7630   25.2820 H       1  LIG   0.0570   0.0000 
24    H8       2.4436  -35.1154   26.3371 H       1  LIG   0.0495   0.0000 
25    H9       3.7654  -34.0491   26.0108 H       1  LIG   0.0519   0.0000 
26    O1      -1.2400  -35.9060   23.9770 O.2     1  LIG  -0.6361  -0.5700 
27    C13      2.3440  -38.7570   21.0360 C.3     1  LIG   0.1354   0.0690 
28    H10      3.1238  -38.3754   20.4296 H       1  LIG   0.0981   0.1000 
29    C14      2.9380  -39.8900   21.8010 C.3     1  LIG  -0.1181  -0.2000 
30    H11      3.8890  -40.1268   21.3997 H       1  LIG   0.0732   0.1000 
31    H12      3.0430  -39.6129   22.8177 H       1  LIG   0.0789   0.1000 
32    C15      1.6390  -40.0610   21.0880 C.3     1  LIG  -0.1196  -0.2000 
33    H13      0.6832  -39.9283   21.5242 H       1  LIG   0.0807   0.1000 
34    H14      1.5292  -40.4423   20.1061 H       1  LIG   0.0733   0.1000 
@<TRIPOS>BOND
1     2     1     ar
2     3     2     1
3     4     2     ar
4     5     4     1
5     6     4     ar
6     7     6     ar
7     8     7     1
8     9     8     1
9     10    8     1
10    11    10    1
11    12    11    ar
12    13    12    1
13    14    12    ar
14    15    14    1
15    16    14    ar
16    17    16    1
17    18    16    ar
18    19    11    ar
19    19    18    ar
20    20    19    1
21    21    1     ar
22    21    7     ar
23    21    20    1
24    22    6     1
25    23    22    1
26    24    22    1
27    25    22    1
28    26    10    2
29    27    20    1
30    28    27    1
31    29    27    1
32    30    29    1
33    31    29    1
34    32    27    1
35    32    29    1
36    33    32    1
37    34    32    1
@<TRIPOS>SUBSTRUCTURE
1   LIG    1    
 
########## Name        : 1VRT.lig
########## Description : AM1BCC_CHARGES =  -0.0002 ORIGINAL_CHARGES =  -0.0000

@<TRIPOS>MOLECULE
1VRT.lig
34    37    1     0     0    
SMALL
USER_CHARGES
@<TRIPOS>ATOM
1     N1       4.0540  -36.9310   22.2210 N.ar    1  LIG  -0.6650  -0.6200 
2     C1       4.9660  -36.2380   22.9390 C.ar    1  LIG   0.3947   0.1600 
3     H1       6.0082  -36.2811   22.6707 H       1  LIG   0.0281   0.1500 
4     C2       4.6240  -35.4500   24.0360 C.ar    1  LIG  -0.2334  -0.1500 
5     H2       5.3884  -34.9151   24.5740 H       1  LIG   0.1480   0.1500 
6     C3       3.3050  -35.3690   24.4150 C.ar    1  LIG  -0.0698  -0.1435 
7     C4       2.3460  -36.0770   23.6860 C.ar    1  LIG  -0.0398   0.1170 
8     N2       0.9890  -36.0280   24.1030 N.am    1  LIG  -0.4596  -0.5470 
9     H3       0.7643  -35.9928   25.0860 H       1  LIG   0.3311   0.3700 
10    C5      -0.1450  -36.0180   23.4080 C.2     1  LIG   0.7361   0.5438 
11    C6      -0.1190  -36.0770   21.8860 C.ar    1  LIG  -0.2550   0.0862 
12    C7      -1.1230  -35.3990   21.1890 C.ar    1  LIG  -0.0321  -0.1500 
13    H4      -1.7552  -34.6955   21.7041 H       1  LIG   0.1623   0.1500 
14    C8      -1.2960  -35.6300   19.8690 C.ar    1  LIG  -0.2723  -0.1500 
15    H5      -2.0662  -35.1073   19.3273 H       1  LIG   0.1522   0.1500 
16    C9      -0.4670  -36.5450   19.2400 C.ar    1  LIG   0.4373   0.1600 
17    H6      -0.5947  -36.7554   18.1915 H       1  LIG   0.0280   0.1500 
18    N3       0.5220  -37.2120   19.8740 N.ar    1  LIG  -0.6893  -0.6200 
19    C10      0.7040  -36.9790   21.1800 C.ar    1  LIG   0.6480   0.4100 
20    N4       1.7670  -37.6730   21.8260 N.pl3   1  LIG  -0.6924  -0.3690 
21    C11      2.7540  -36.8570   22.5840 C.ar    1  LIG   0.5805   0.4100 
22    C12      2.9040  -34.5090   25.6010 C.3     1  LIG  -0.0620   0.1435 
23    H7       2.2235  -33.7630   25.2820 H       1  LIG   0.0570   0.0000 
24    H8       2.4436  -35.1154   26.3371 H       1  LIG   0.0495   0.0000 
25    H9       3.7654  -34.0491   26.0108 H       1  LIG   0.0519   0.0000 
26    O1      -1.2400  -35.9060   23.9770 O.2     1  LIG  -0.6361  -0.5700 
27    C13      2.3440  -38.7570   21.0360 C.3     1  LIG   0.1354   0.0690 
28    H10      3.1238  -38.3754   20.4296 H       1  LIG   0.0981   0.1000 
29    C14      2.9380  -39.8900   21.8010 C.3     1  LIG  -0.1181  -0.2000 
30    H11      3.8890  -40.1268   21.3997 H       1  LIG   0.0732   0.1000 
31    H12      3.0430  -39.6129   22.8177 H       1  LIG   0.0789   0.1000 
32    C15      1.6390  -40.0610   21.0880 C.3     1  LIG  -0.1196  -0.2000 
33    H13      0.6832  -39.9283   21.5242 H       1  LIG   0.0807   0.1000 
34    H14      1.5292  -40.4423   20.1061 H       1  LIG   0.0733   0.1000 
@<TRIPOS>BOND
1     2     1     ar
2     3     2     1
3     4     2     ar
4     5     4     1
5     6     4     ar
6     7     6     ar
7     8     7     1
8     9     8     1
9     10    8     1
10    11    10    1
11    12    11    ar
12    13    12    1
13    14    12    ar
14    15    14    1
15    16    14    ar
16    17    16    1
17    18    16    ar
18    19    11    ar
19    19    18    ar
20    20    19    1
21    21    1     ar
22    21    7     ar
23    21    20    1
24    22    6     1
25    23    22    1
26    24    22    1
27    25    22    1
28    26    10    2
29    27    20    1
30    28    27    1
31    29    27    1
32    30    29    1
33    31    29    1
34    32    27    1
35    32    29    1
36    33    32    1
37    34    32    1
@<TRIPOS>SUBSTRUCTURE
1   LIG    1    
 
########## Name        : 1VRT.lig
########## Description : AM1BCC_CHARGES =  -0.0002 ORIGINAL_CHARGES =  -0.0000

@<TRIPOS>MOLECULE
1VRT.lig
34    37    1     0     0    
SMALL
USER_CHARGES
@<TRIPOS>ATOM
1     N1       4.0540  -36.9310   22.2210 N.ar    1  LIG  -0.6650  -0.6200 
2     C1       4.9660  -36.2380   22.9390 C.ar    1  LIG   0.3947   0.1600 
3     H1       6.0082  -36.2811   22.6707 H       1  LIG   0.0281   0.1500 
4     C2       4.6240  -35.4500   24.0360 C.ar    1  LIG  -0.2334  -0.1500 
5     H2       5.3884  -34.9151   24.5740 H       1  LIG   0.1480   0.1500 
6     C3       3.3050  -35.3690   24.4150 C.ar    1  LIG  -0.0698  -0.1435 
7     C4       2.3460  -36.0770   23.6860 C.ar    1  LIG  -0.0398   0.1170 
8     N2       0.9890  -36.0280   24.1030 N.am    1  LIG  -0.4596  -0.5470 
9     H3       0.7643  -35.9928   25.0860 H       1  LIG   0.3311   0.3700 
10    C5      -0.1450  -36.0180   23.4080 C.2     1  LIG   0.7361   0.5438 
11    C6      -0.1190  -36.0770   21.8860 C.ar    1  LIG  -0.2550   0.0862 
12    C7      -1.1230  -35.3990   21.1890 C.ar    1  LIG  -0.0321  -0.1500 
13    H4      -1.7552  -34.6955   21.7041 H       1  LIG   0.1623   0.1500 
14    C8      -1.2960  -35.6300   19.8690 C.ar    1  LIG  -0.2723  -0.1500 
15    H5      -2.0662  -35.1073   19.3273 H       1  LIG   0.1522   0.1500 
16    C9      -0.4670  -36.5450   19.2400 C.ar    1  LIG   0.4373   0.1600 
17    H6      -0.5947  -36.7554   18.1915 H       1  LIG   0.0280   0.1500 
18    N3       0.5220  -37.2120   19.8740 N.ar    1  LIG  -0.6893  -0.6200 
19    C10      0.7040  -36.9790   21.1800 C.ar    1  LIG   0.6480   0.4100 
20    N4       1.7670  -37.6730   21.8260 N.pl3   1  LIG  -0.6924  -0.3690 
21    C11      2.7540  -36.8570   22.5840 C.ar    1  LIG   0.5805   0.4100 
22    C12      2.9040  -34.5090   25.6010 C.3     1  LIG  -0.0620   0.1435 
23    H7       2.2235  -33.7630   25.2820 H       1  LIG   0.0570   0.0000 
24    H8       2.4436  -35.1154   26.3371 H       1  LIG   0.0495   0.0000 
25    H9       3.7654  -34.0491   26.0108 H       1  LIG   0.0519   0.0000 
26    O1      -1.2400  -35.9060   23.9770 O.2     1  LIG  -0.6361  -0.5700 
27    C13      2.3440  -38.7570   21.0360 C.3     1  LIG   0.1354   0.0690 
28    H10      3.1238  -38.3754   20.4296 H       1  LIG   0.0981   0.1000 
29    C14      2.9380  -39.8900   21.8010 C.3     1  LIG  -0.1181  -0.2000 
30    H11      3.8890  -40.1268   21.3997 H       1  LIG   0.0732   0.1000 
31    H12      3.0430  -39.6129   22.8177 H       1  LIG   0.0789   0.1000 
32    C15      1.6390  -40.0610   21.0880 C.3     1  LIG  -0.1196  -0.2000 
33    H13      0.6832  -39.9283   21.5242 H       1  LIG   0.0807   0.1000 
34    H14      1.5292  -40.4423   20.1061 H       1  LIG   0.0733   0.1000 
@<TRIPOS>BOND
1     2     1     ar
2     3     2     1
3     4     2     ar
4     5     4     1
5     6     4     ar
6     7     6     ar
7     8     7     1
8     9     8     1
9     10    8     1
10    11    10    1
11    12    11    ar
12    13    12    1
13    14    12    ar
14    15    14    1
15    16    14    ar
16    17    16    1
17    18    16    ar
18    19    11    ar
19    19    18    ar
20    20    19    1
21    21    1     ar
22    21    7     ar
23    21    20    1
24    22    6     1
25    23    22    1
26    24    22    1
27    25    22    1
28    26    10    2
29    27    20    1
30    28    27    1
31    29    27    1
32    30    29    1
33    31    29    1
34    32    27    1
35    32    29    1
36    33    32    1
37    34    32    1
@<TRIPOS>SUBSTRUCTURE
1   LIG    1    
 
########## Name        : 1VRT.lig
########## Description : AM1BCC_CHARGES =  -0.0002 ORIGINAL_CHARGES =  -0.0000

@<TRIPOS>MOLECULE
1VRT.lig
34    37    1     0     0    
SMALL
USER_CHARGES
@<TRIPOS>ATOM
1     N1       4.0540  -36.9310   22.2210 N.ar    1  LIG  -0.6650  -0.6200 
2     C1       4.9660  -36.2380   22.9390 C.ar    1  LIG   0.3947   0.1600 
3     H1       6.0082  -36.2811   22.6707 H       1  LIG   0.0281   0.1500 
4     C2       4.6240  -35.4500   24.0360 C.ar    1  LIG  -0.2334  -0.1500 
5     H2       5.3884  -34.9151   24.5740 H       1  LIG   0.1480   0.1500 
6     C3       3.3050  -35.3690   24.4150 C.ar    1  LIG  -0.0698  -0.1435 
7     C4       2.3460  -36.0770   23.6860 C.ar    1  LIG  -0.0398   0.1170 
8     N2       0.9890  -36.0280   24.1030 N.am    1  LIG  -0.4596  -0.5470 
9     H3       0.7643  -35.9928   25.0860 H       1  LIG   0.3311   0.3700 
10    C5      -0.1450  -36.0180   23.4080 C.2     1  LIG   0.7361   0.5438 
11    C6      -0.1190  -36.0770   21.8860 C.ar    1  LIG  -0.2550   0.0862 
12    C7      -1.1230  -35.3990   21.1890 C.ar    1  LIG  -0.0321  -0.1500 
13    H4      -1.7552  -34.6955   21.7041 H       1  LIG   0.1623   0.1500 
14    C8      -1.2960  -35.6300   19.8690 C.ar    1  LIG  -0.2723  -0.1500 
15    H5      -2.0662  -35.1073   19.3273 H       1  LIG   0.1522   0.1500 
16    C9      -0.4670  -36.5450   19.2400 C.ar    1  LIG   0.4373   0.1600 
17    H6      -0.5947  -36.7554   18.1915 H       1  LIG   0.0280   0.1500 
18    N3       0.5220  -37.2120   19.8740 N.ar    1  LIG  -0.6893  -0.6200 
19    C10      0.7040  -36.9790   21.1800 C.ar    1  LIG   0.6480   0.4100 
20    N4       1.7670  -37.6730   21.8260 N.pl3   1  LIG  -0.6924  -0.3690 
21    C11      2.7540  -36.8570   22.5840 C.ar    1  LIG   0.5805   0.4100 
22    C12      2.9040  -34.5090   25.6010 C.3     1  LIG  -0.0620   0.1435 
23    H7       2.2235  -33.7630   25.2820 H       1  LIG   0.0570   0.0000 
24    H8       2.4436  -35.1154   26.3371 H       1  LIG   0.0495   0.0000 
25    H9       3.7654  -34.0491   26.0108 H       1  LIG   0.0519   0.0000 
26    O1      -1.2400  -35.9060   23.9770 O.2     1  LIG  -0.6361  -0.5700 
27    C13      2.3440  -38.7570   21.0360 C.3     1  LIG   0.1354   0.0690 
28    H10      3.1238  -38.3754   20.4296 H       1  LIG   0.0981   0.1000 
29    C14      2.9380  -39.8900   21.8010 C.3     1  LIG  -0.1181  -0.2000 
30    H11      3.8890  -40.1268   21.3997 H       1  LIG   0.0732   0.1000 
31    H12      3.0430  -39.6129   22.8177 H       1  LIG   0.0789   0.1000 
32    C15      1.6390  -40.0610   21.0880 C.3     1  LIG  -0.1196  -0.2000 
33    H13      0.6832  -39.9283   21.5242 H       1  LIG   0.0807   0.1000 
34    H14      1.5292  -40.4423   20.1061 H       1  LIG   0.0733   0.1000 
@<TRIPOS>BOND
1     2     1     ar
2     3     2     1
3     4     2     ar
4     5     4     1
5     6     4     ar
6     7     6     ar
7     8     7     1
8     9     8     1
9     10    8     1
10    11    10    1
11    12    11    ar
12    13    12    1
13    14    12    ar
14    15    14    1
15    16    14    ar
16    17    16    1
17    18    16    ar
18    19    11    ar
19    19    18    ar
20    20    19    1
21    21    1     ar
22    21    7     ar
23    21    20    1
24    22    6     1
25    23    22    1
26    24    22    1
27    25    22    1
28    26    10    2
29    27    20    1
30    28    27    1
31    29    27    1
32    30    29    1
33    31    29    1
34    32    27    1
35    32    29    1
36    33    32    1
37    34    32    1
@<TRIPOS>SUBSTRUCTURE
1   LIG    1    
 
########## Name        : 1VRT.lig
########## Description : AM1BCC_CHARGES =  -0.0002 ORIGINAL_CHARGES =  -0.0000

@<TRIPOS>MOLECULE
1VRT.lig
34    37    1     0     0    
SMALL
USER_CHARGES
@<TRIPOS>ATOM
1     N1       4.0540  -36.9310   22.2210 N.ar    1  LIG  -0.6650  -0.6200 
2     C1       4.9660  -36.2380   22.9390 C.ar    1  LIG   0.3947   0.1600 
3     H1       6.0082  -36.2811   22.6707 H       1  LIG   0.0281   0.1500 
4     C2       4.6240  -35.4500   24.0360 C.ar    1  LIG  -0.2334  -0.1500 
5     H2       5.3884  -34.9151   24.5740 H       1  LIG   0.1480   0.1500 
6     C3       3.3050  -35.3690   24.4150 C.ar    1  LIG  -0.0698  -0.1435 
7     C4       2.3460  -36.0770   23.6860 C.ar    1  LIG  -0.0398   0.1170 
8     N2       0.9890  -36.0280   24.1030 N.am    1  LIG  -0.4596  -0.5470 
9     H3       0.7643  -35.9928   25.0860 H       1  LIG   0.3311   0.3700 
10    C5      -0.1450  -36.0180   23.4080 C.2     1  LIG   0.7361   0.5438 
11    C6      -0.1190  -36.0770   21.8860 C.ar    1  LIG  -0.2550   0.0862 
12    C7      -1.1230  -35.3990   21.1890 C.ar    1  LIG  -0.0321  -0.1500 
13    H4      -1.7552  -34.6955   21.7041 H       1  LIG   0.1623   0.1500 
14    C8      -1.2960  -35.6300   19.8690 C.ar    1  LIG  -0.2723  -0.1500 
15    H5      -2.0662  -35.1073   19.3273 H       1  LIG   0.1522   0.1500 
16    C9      -0.4670  -36.5450   19.2400 C.ar    1  LIG   0.4373   0.1600 
17    H6      -0.5947  -36.7554   18.1915 H       1  LIG   0.0280   0.1500 
18    N3       0.5220  -37.2120   19.8740 N.ar    1  LIG  -0.6893  -0.6200 
19    C10      0.7040  -36.9790   21.1800 C.ar    1  LIG   0.6480   0.4100 
20    N4       1.7670  -37.6730   21.8260 N.pl3   1  LIG  -0.6924  -0.3690 
21    C11      2.7540  -36.8570   22.5840 C.ar    1  LIG   0.5805   0.4100 
22    C12      2.9040  -34.5090   25.6010 C.3     1  LIG  -0.0620   0.1435 
23    H7       2.2235  -33.7630   25.2820 H       1  LIG   0.0570   0.0000 
24    H8       2.4436  -35.1154   26.3371 H       1  LIG   0.0495   0.0000 
25    H9       3.7654  -34.0491   26.0108 H       1  LIG   0.0519   0.0000 
26    O1      -1.2400  -35.9060   23.9770 O.2     1  LIG  -0.6361  -0.5700 
27    C13      2.3440  -38.7570   21.0360 C.3     1  LIG   0.1354   0.0690 
28    H10      3.1238  -38.3754   20.4296 H       1  LIG   0.0981   0.1000 
29    C14      2.9380  -39.8900   21.8010 C.3     1  LIG  -0.1181  -0.2000 
30    H11      3.8890  -40.1268   21.3997 H       1  LIG   0.0732   0.1000 
31    H12      3.0430  -39.6129   22.8177 H       1  LIG   0.0789   0.1000 
32    C15      1.6390  -40.0610   21.0880 C.3     1  LIG  -0.1196  -0.2000 
33    H13      0.6832  -39.9283   21.5242 H       1  LIG   0.0807   0.1000 
34    H14      1.5292  -40.4423   20.1061 H       1  LIG   0.0733   0.1000 
@<TRIPOS>BOND
1     2     1     ar
2     3     2     1
3     4     2     ar
4     5     4     1
5     6     4     ar
6     7     6     ar
7     8     7     1
8     9     8     1
9     10    8     1
10    11    10    1
11    12    11    ar
12    13    12    1
13    14    12    ar
14    15    14    1
15    16    14    ar
16    17    16    1
17    18    16    ar
18    19    11    ar
19    19    18    ar
20    20    19    1
21    21    1     ar
22    21    7     ar
23    21    20    1
24    22    6     1
25    23    22    1
26    24    22    1
27    25    22    1
28    26    10    2
29    27    20    1
30    28    27    1
31    29    27    1
32    30    29    1
33    31    29    1
34    32    27    1
35    32    29    1
36    33    32    1
37    34    32    1
@<TRIPOS>SUBSTRUCTURE
1   LIG    1    
 
########## Name        : 1VRT.lig
########## Description : AM1BCC_CHARGES =  -0.0002 ORIGINAL_CHARGES =  -0.0000

@<TRIPOS>MOLECULE
1VRT.lig
34    37    1     0     0    
SMALL
USER_CHARGES
@<TRIPOS>ATOM
1     N1       4.0540  -36.9310   22.2210 N.ar    1  LIG  -0.6650  -0.6200 
2     C1       4.9660  -36.2380   22.9390 C.ar    1  LIG   0.3947   0.1600 
3     H1       6.0082  -36.2811   22.6707 H       1  LIG   0.0281   0.1500 
4     C2       4.6240  -35.4500   24.0360 C.ar    1  LIG  -0.2334  -0.1500 
5     H2       5.3884  -34.9151   24.5740 H       1  LIG   0.1480   0.1500 
6     C3       3.3050  -35.3690   24.4150 C.ar    1  LIG  -0.0698  -0.1435 
7     C4       2.3460  -36.0770   23.6860 C.ar    1  LIG  -0.0398   0.1170 
8     N2       0.9890  -36.0280   24.1030 N.am    1  LIG  -0.4596  -0.5470 
9     H3       0.7643  -35.9928   25.0860 H       1  LIG   0.3311   0.3700 
10    C5      -0.1450  -36.0180   23.4080 C.2     1  LIG   0.7361   0.5438 
11    C6      -0.1190  -36.0770   21.8860 C.ar    1  LIG  -0.2550   0.0862 
12    C7      -1.1230  -35.3990   21.1890 C.ar    1  LIG  -0.0321  -0.1500 
13    H4      -1.7552  -34.6955   21.7041 H       1  LIG   0.1623   0.1500 
14    C8      -1.2960  -35.6300   19.8690 C.ar    1  LIG  -0.2723  -0.1500 
15    H5      -2.0662  -35.1073   19.3273 H       1  LIG   0.1522   0.1500 
16    C9      -0.4670  -36.5450   19.2400 C.ar    1  LIG   0.4373   0.1600 
17    H6      -0.5947  -36.7554   18.1915 H       1  LIG   0.0280   0.1500 
18    N3       0.5220  -37.2120   19.8740 N.ar    1  LIG  -0.6893  -0.6200 
19    C10      0.7040  -36.9790   21.1800 C.ar    1  LIG   0.6480   0.4100 
20    N4       1.7670  -37.6730   21.8260 N.pl3   1  LIG  -0.6924  -0.3690 
21    C11      2.7540  -36.8570   22.5840 C.ar    1  LIG   0.5805   0.4100 
22    C12      2.9040  -34.5090   25.6010 C.3     1  LIG  -0.0620   0.1435 
23    H7       2.2235  -33.7630   25.2820 H       1  LIG   0.0570   0.0000 
24    H8       2.4436  -35.1154   26.3371 H       1  LIG   0.0495   0.0000 
25    H9       3.7654  -34.0491   26.0108 H       1  LIG   0.0519   0.0000 
26    O1      -1.2400  -35.9060   23.9770 O.2     1  LIG  -0.6361  -0.5700 
27    C13      2.3440  -38.7570   21.0360 C.3     1  LIG   0.1354   0.0690 
28    H10      3.1238  -38.3754   20.4296 H       1  LIG   0.0981   0.1000 
29    C14      2.9380  -39.8900   21.8010 C.3     1  LIG  -0.1181  -0.2000 
30    H11      3.8890  -40.1268   21.3997 H       1  LIG   0.0732   0.1000 
31    H12      3.0430  -39.6129   22.8177 H       1  LIG   0.0789   0.1000 
32    C15      1.6390  -40.0610   21.0880 C.3     1  LIG  -0.1196  -0.2000 
33    H13      0.6832  -39.9283   21.5242 H       1  LIG   0.0807   0.1000 
34    H14      1.5292  -40.4423   20.1061 H       1  LIG   0.0733   0.1000 
@<TRIPOS>BOND
1     2     1     ar
2     3     2     1
3     4     2     ar
4     5     4     1
5     6     4     ar
6     7     6     ar
7     8     7     1
8     9     8     1
9     10    8     1
10    11    10    1
11    12    11    ar
12    13    12    1
13    14    12    ar
14    15    14    1
15    16    14    ar
16    17    16    1
17    18    16    ar
18    19    11    ar
19    19    18    ar
20    20    19    1
21    21    1     ar
22    21    7     ar
23    21    20    1
24    22    6     1
25    23    22    1
26    24    22    1
27    25    22    1
28    26    10    2
29    27    20    1
30    28    27    1
31    29    27    1
32    30    29    1
33    31    29    1
34    32    27    1
35    32    29    1
36    33    32    1
37    34    32    1
@<TRIPOS>SUBSTRUCTURE
1   LIG    1    
 
########## Name        : 1VRT.lig
########## Description : AM1BCC_CHARGES =  -0.0002 ORIGINAL_CHARGES =  -0.0000

@<TRIPOS>MOLECULE
1VRT.lig
34    37    1     0     0    
SMALL
USER_CHARGES
@<TRIPOS>ATOM
1     N1       4.0540  -36.9310   22.2210 N.ar    1  LIG  -0.6650  -0.6200 
2     C1       4.9660  -36.2380   22.9390 C.ar    1  LIG   0.3947   0.1600 
3     H1       6.0082  -36.2811   22.6707 H       1  LIG   0.0281   0.1500 
4     C2       4.6240  -35.4500   24.0360 C.ar    1  LIG  -0.2334  -0.1500 
5     H2       5.3884  -34.9151   24.5740 H       1  LIG   0.1480   0.1500 
6     C3       3.3050  -35.3690   24.4150 C.ar    1  LIG  -0.0698  -0.1435 
7     C4       2.3460  -36.0770   23.6860 C.ar    1  LIG  -0.0398   0.1170 
8     N2       0.9890  -36.0280   24.1030 N.am    1  LIG  -0.4596  -0.5470 
9     H3       0.7643  -35.9928   25.0860 H       1  LIG   0.3311   0.3700 
10    C5      -0.1450  -36.0180   23.4080 C.2     1  LIG   0.7361   0.5438 
11    C6      -0.1190  -36.0770   21.8860 C.ar    1  LIG  -0.2550   0.0862 
12    C7      -1.1230  -35.3990   21.1890 C.ar    1  LIG  -0.0321  -0.1500 
13    H4      -1.7552  -34.6955   21.7041 H       1  LIG   0.1623   0.1500 
14    C8      -1.2960  -35.6300   19.8690 C.ar    1  LIG  -0.2723  -0.1500 
15    H5      -2.0662  -35.1073   19.3273 H       1  LIG   0.1522   0.1500 
16    C9      -0.4670  -36.5450   19.2400 C.ar    1  LIG   0.4373   0.1600 
17    H6      -0.5947  -36.7554   18.1915 H       1  LIG   0.0280   0.1500 
18    N3       0.5220  -37.2120   19.8740 N.ar    1  LIG  -0.6893  -0.6200 
19    C10      0.7040  -36.9790   21.1800 C.ar    1  LIG   0.6480   0.4100 
20    N4       1.7670  -37.6730   21.8260 N.pl3   1  LIG  -0.6924  -0.3690 
21    C11      2.7540  -36.8570   22.5840 C.ar    1  LIG   0.5805   0.4100 
22    C12      2.9040  -34.5090   25.6010 C.3     1  LIG  -0.0620   0.1435 
23    H7       2.2235  -33.7630   25.2820 H       1  LIG   0.0570   0.0000 
24    H8       2.4436  -35.1154   26.3371 H       1  LIG   0.0495   0.0000 
25    H9       3.7654  -34.0491   26.0108 H       1  LIG   0.0519   0.0000 
26    O1      -1.2400  -35.9060   23.9770 O.2     1  LIG  -0.6361  -0.5700 
27    C13      2.3440  -38.7570   21.0360 C.3     1  LIG   0.1354   0.0690 
28    H10      3.1238  -38.3754   20.4296 H       1  LIG   0.0981   0.1000 
29    C14      2.9380  -39.8900   21.8010 C.3     1  LIG  -0.1181  -0.2000 
30    H11      3.8890  -40.1268   21.3997 H       1  LIG   0.0732   0.1000 
31    H12      3.0430  -39.6129   22.8177 H       1  LIG   0.0789   0.1000 
32    C15      1.6390  -40.0610   21.0880 C.3     1  LIG  -0.1196  -0.2000 
33    H13      0.6832  -39.9283   21.5242 H       1  LIG   0.0807   0.1000 
34    H14      1.5292  -40.4423   20.1061 H       1  LIG   0.0733   0.1000 
@<TRIPOS>BOND
1     2     1     ar
2     3     2     1
3     4     2     ar
4     5     4     1
5     6     4     ar
6     7     6     ar
7     8     7     1
8     9     8     1
9     10    8     1
10    11    10    1
11    12    11    ar
12    13    12    1
13    14    12    ar
14    15    14    1
15    16    14    ar
16    17    16    1
17    18    16    ar
18    19    11    ar
19    19    18    ar
20    20    19    1
21    21    1     ar
22    21    7     ar
23    21    20    1
24    22    6     1
25    23    22    1
26    24    22    1
27    25    22    1
28    26    10    2
29    27    20    1
30    28    27    1
31    29    27    1
32    30    29    1
33    31    29    1
34    32    27    1
35    32    29    1
36    33    32    1
37    34    32    1
@<TRIPOS>SUBSTRUCTURE
1   LIG    1    
 
########## Name        : 1VRT.lig
########## Description : AM1BCC_CHARGES =  -0.0002 ORIGINAL_CHARGES =  -0.0000

@<TRIPOS>MOLECULE
1VRT.lig
34    37    1     0     0    
SMALL
USER_CHARGES
@<TRIPOS>ATOM
1     N1       4.0540  -36.9310   22.2210 N.ar    1  LIG  -0.6650  -0.6200 
2     C1       4.9660  -36.2380   22.9390 C.ar    1  LIG   0.3947   0.1600 
3     H1       6.0082  -36.2811   22.6707 H       1  LIG   0.0281   0.1500 
4     C2       4.6240  -35.4500   24.0360 C.ar    1  LIG  -0.2334  -0.1500 
5     H2       5.3884  -34.9151   24.5740 H       1  LIG   0.1480   0.1500 
6     C3       3.3050  -35.3690   24.4150 C.ar    1  LIG  -0.0698  -0.1435 
7     C4       2.3460  -36.0770   23.6860 C.ar    1  LIG  -0.0398   0.1170 
8     N2       0.9890  -36.0280   24.1030 N.am    1  LIG  -0.4596  -0.5470 
9     H3       0.7643  -35.9928   25.0860 H       1  LIG   0.3311   0.3700 
10    C5      -0.1450  -36.0180   23.4080 C.2     1  LIG   0.7361   0.5438 
11    C6      -0.1190  -36.0770   21.8860 C.ar    1  LIG  -0.2550   0.0862 
12    C7      -1.1230  -35.3990   21.1890 C.ar    1  LIG  -0.0321  -0.1500 
13    H4      -1.7552  -34.6955   21.7041 H       1  LIG   0.1623   0.1500 
14    C8      -1.2960  -35.6300   19.8690 C.ar    1  LIG  -0.2723  -0.1500 
15    H5      -2.0662  -35.1073   19.3273 H       1  LIG   0.1522   0.1500 
16    C9      -0.4670  -36.5450   19.2400 C.ar    1  LIG   0.4373   0.1600 
17    H6      -0.5947  -36.7554   18.1915 H       1  LIG   0.0280   0.1500 
18    N3       0.5220  -37.2120   19.8740 N.ar    1  LIG  -0.6893  -0.6200 
19    C10      0.7040  -36.9790   21.1800 C.ar    1  LIG   0.6480   0.4100 
20    N4       1.7670  -37.6730   21.8260 N.pl3   1  LIG  -0.6924  -0.3690 
21    C11      2.7540  -36.8570   22.5840 C.ar    1  LIG   0.5805   0.4100 
22    C12      2.9040  -34.5090   25.6010 C.3     1  LIG  -0.0620   0.1435 
23    H7       2.2235  -33.7630   25.2820 H       1  LIG   0.0570   0.0000 
24    H8       2.4436  -35.1154   26.3371 H       1  LIG   0.0495   0.0000 
25    H9       3.7654  -34.0491   26.0108 H       1  LIG   0.0519   0.0000 
26    O1      -1.2400  -35.9060   23.9770 O.2     1  LIG  -0.6361  -0.5700 
27    C13      2.3440  -38.7570   21.0360 C.3     1  LIG   0.1354   0.0690 
28    H10      3.1238  -38.3754   20.4296 H       1  LIG   0.0981   0.1000 
29    C14      2.9380  -39.8900   21.8010 C.3     1  LIG  -0.1181  -0.2000 
30    H11      3.8890  -40.1268   21.3997 H       1  LIG   0.0732   0.1000 
31    H12      3.0430  -39.6129   22.8177 H       1  LIG   0.0789   0.1000 
32    C15      1.6390  -40.0610   21.0880 C.3     1  LIG  -0.1196  -0.2000 
33    H13      0.6832  -39.9283   21.5242 H       1  LIG   0.0807   0.1000 
34    H14      1.5292  -40.4423   20.1061 H       1  LIG   0.0733   0.1000 
@<TRIPOS>BOND
1     2     1     ar
2     3     2     1
3     4     2     ar
4     5     4     1
5     6     4     ar
6     7     6     ar
7     8     7     1
8     9     8     1
9     10    8     1
10    11    10    1
11    12    11    ar
12    13    12    1
13    14    12    ar
14    15    14    1
15    16    14    ar
16    17    16    1
17    18    16    ar
18    19    11    ar
19    19    18    ar
20    20    19    1
21    21    1     ar
22    21    7     ar
23    21    20    1
24    22    6     1
25    23    22    1
26    24    22    1
27    25    22    1
28    26    10    2
29    27    20    1
30    28    27    1
31    29    27    1
32    30    29    1
33    31    29    1
34    32    27    1
35    32    29    1
36    33    32    1
37    34    32    1
@<TRIPOS>SUBSTRUCTURE
1   LIG    1    
 
########## Name        : 1VRT.lig
########## Description : AM1BCC_CHARGES =  -0.0002 ORIGINAL_CHARGES =  -0.0000

@<TRIPOS>MOLECULE
1VRT.lig
34    37    1     0     0    
SMALL
USER_CHARGES
@<TRIPOS>ATOM
1     N1       4.0540  -36.9310   22.2210 N.ar    1  LIG  -0.6650  -0.6200 
2     C1       4.9660  -36.2380   22.9390 C.ar    1  LIG   0.3947   0.1600 
3     H1       6.0082  -36.2811   22.6707 H       1  LIG   0.0281   0.1500 
4     C2       4.6240  -35.4500   24.0360 C.ar    1  LIG  -0.2334  -0.1500 
5     H2       5.3884  -34.9151   24.5740 H       1  LIG   0.1480   0.1500 
6     C3       3.3050  -35.3690   24.4150 C.ar    1  LIG  -0.0698  -0.1435 
7     C4       2.3460  -36.0770   23.6860 C.ar    1  LIG  -0.0398   0.1170 
8     N2       0.9890  -36.0280   24.1030 N.am    1  LIG  -0.4596  -0.5470 
9     H3       0.7643  -35.9928   25.0860 H       1  LIG   0.3311   0.3700 
10    C5      -0.1450  -36.0180   23.4080 C.2     1  LIG   0.7361   0.5438 
11    C6      -0.1190  -36.0770   21.8860 C.ar    1  LIG  -0.2550   0.0862 
12    C7      -1.1230  -35.3990   21.1890 C.ar    1  LIG  -0.0321  -0.1500 
13    H4      -1.7552  -34.6955   21.7041 H       1  LIG   0.1623   0.1500 
14    C8      -1.2960  -35.6300   19.8690 C.ar    1  LIG  -0.2723  -0.1500 
15    H5      -2.0662  -35.1073   19.3273 H       1  LIG   0.1522   0.1500 
16    C9      -0.4670  -36.5450   19.2400 C.ar    1  LIG   0.4373   0.1600 
17    H6      -0.5947  -36.7554   18.1915 H       1  LIG   0.0280   0.1500 
18    N3       0.5220  -37.2120   19.8740 N.ar    1  LIG  -0.6893  -0.6200 
19    C10      0.7040  -36.9790   21.1800 C.ar    1  LIG   0.6480   0.4100 
20    N4       1.7670  -37.6730   21.8260 N.pl3   1  LIG  -0.6924  -0.3690 
21    C11      2.7540  -36.8570   22.5840 C.ar    1  LIG   0.5805   0.4100 
22    C12      2.9040  -34.5090   25.6010 C.3     1  LIG  -0.0620   0.1435 
23    H7       2.2235  -33.7630   25.2820 H       1  LIG   0.0570   0.0000 
24    H8       2.4436  -35.1154   26.3371 H       1  LIG   0.0495   0.0000 
25    H9       3.7654  -34.0491   26.0108 H       1  LIG   0.0519   0.0000 
26    O1      -1.2400  -35.9060   23.9770 O.2     1  LIG  -0.6361  -0.5700 
27    C13      2.3440  -38.7570   21.0360 C.3     1  LIG   0.1354   0.0690 
28    H10      3.1238  -38.3754   20.4296 H       1  LIG   0.0981   0.1000 
29    C14      2.9380  -39.8900   21.8010 C.3     1  LIG  -0.1181  -0.2000 
30    H11      3.8890  -40.1268   21.3997 H       1  LIG   0.0732   0.1000 
31    H12      3.0430  -39.6129   22.8177 H       1  LIG   0.0789   0.1000 
32    C15      1.6390  -40.0610   21.0880 C.3     1  LIG  -0.1196  -0.2000 
33    H13      0.6832  -39.9283   21.5242 H       1  LIG   0.0807   0.1000 
34    H14      1.5292  -40.4423   20.1061 H       1  LIG   0.0733   0.1000 
@<TRIPOS>BOND
1     2     1     ar
2     3     2     1
3     4     2     ar
4     5     4     1
5     6     4     ar
6     7     6     ar
7     8     7     1
8     9     8     1
9     10    8     1
10    11    10    1
11    12    11    ar
12    13    12    1
13    14    12    ar
14    15    14    1
15    16    14    ar
16    17    16    1
17    18    16    ar
18    19    11    ar
19    19    18    ar
20    20    19    1
21    21    1     ar
22    21    7     ar
23    21    20    1
24    22    6     1
25    23    22    1
26    24    22    1
27    25    22    1
28    26    10    2
29    27    20    1
30    28    27    1
31    29    27    1
32    30    29    1
33    31    29    1
34    32    27    1
35    32    29    1
36    33    32    1
37    34    32    1
@<TRIPOS>SUBSTRUCTURE
1   LIG    1    
 
########## Name        : 1VRT.lig
########## Description : AM1BCC_CHARGES =  -0.0002 ORIGINAL_CHARGES =  -0.0000

@<TRIPOS>MOLECULE
1VRT.lig
34    37    1     0     0    
SMALL
USER_CHARGES
@<TRIPOS>ATOM
1     N1       4.0540  -36.9310   22.2210 N.ar    1  LIG  -0.6650  -0.6200 
2     C1       4.9660  -36.2380   22.9390 C.ar    1  LIG   0.3947   0.1600 
3     H1       6.0082  -36.2811   22.6707 H       1  LIG   0.0281   0.1500 
4     C2       4.6240  -35.4500   24.0360 C.ar    1  LIG  -0.2334  -0.1500 
5     H2       5.3884  -34.9151   24.5740 H       1  LIG   0.1480   0.1500 
6     C3       3.3050  -35.3690   24.4150 C.ar    1  LIG  -0.0698  -0.1435 
7     C4       2.3460  -36.0770   23.6860 C.ar    1  LIG  -0.0398   0.1170 
8     N2       0.9890  -36.0280   24.1030 N.am    1  LIG  -0.4596  -0.5470 
9     H3       0.7643  -35.9928   25.0860 H       1  LIG   0.3311   0.3700 
10    C5      -0.1450  -36.0180   23.4080 C.2     1  LIG   0.7361   0.5438 
11    C6      -0.1190  -36.0770   21.8860 C.ar    1  LIG  -0.2550   0.0862 
12    C7      -1.1230  -35.3990   21.1890 C.ar    1  LIG  -0.0321  -0.1500 
13    H4      -1.7552  -34.6955   21.7041 H       1  LIG   0.1623   0.1500 
14    C8      -1.2960  -35.6300   19.8690 C.ar    1  LIG  -0.2723  -0.1500 
15    H5      -2.0662  -35.1073   19.3273 H       1  LIG   0.1522   0.1500 
16    C9      -0.4670  -36.5450   19.2400 C.ar    1  LIG   0.4373   0.1600 
17    H6      -0.5947  -36.7554   18.1915 H       1  LIG   0.0280   0.1500 
18    N3       0.5220  -37.2120   19.8740 N.ar    1  LIG  -0.6893  -0.6200 
19    C10      0.7040  -36.9790   21.1800 C.ar    1  LIG   0.6480   0.4100 
20    N4       1.7670  -37.6730   21.8260 N.pl3   1  LIG  -0.6924  -0.3690 
21    C11      2.7540  -36.8570   22.5840 C.ar    1  LIG   0.5805   0.4100 
22    C12      2.9040  -34.5090   25.6010 C.3     1  LIG  -0.0620   0.1435 
23    H7       2.2235  -33.7630   25.2820 H       1  LIG   0.0570   0.0000 
24    H8       2.4436  -35.1154   26.3371 H       1  LIG   0.0495   0.0000 
25    H9       3.7654  -34.0491   26.0108 H       1  LIG   0.0519   0.0000 
26    O1      -1.2400  -35.9060   23.9770 O.2     1  LIG  -0.6361  -0.5700 
27    C13      2.3440  -38.7570   21.0360 C.3     1  LIG   0.1354   0.0690 
28    H10      3.1238  -38.3754   20.4296 H       1  LIG   0.0981   0.1000 
29    C14      2.9380  -39.8900   21.8010 C.3     1  LIG  -0.1181  -0.2000 
30    H11      3.8890  -40.1268   21.3997 H       1  LIG   0.0732   0.1000 
31    H12      3.0430  -39.6129   22.8177 H       1  LIG   0.0789   0.1000 
32    C15      1.6390  -40.0610   21.0880 C.3     1  LIG  -0.1196  -0.2000 
33    H13      0.6832  -39.9283   21.5242 H       1  LIG   0.0807   0.1000 
34    H14      1.5292  -40.4423   20.1061 H       1  LIG   0.0733   0.1000 
@<TRIPOS>BOND
1     2     1     ar
2     3     2     1
3     4     2     ar
4     5     4     1
5     6     4     ar
6     7     6     ar
7     8     7     1
8     9     8     1
9     10    8     1
10    11    10    1
11    12    11    ar
12    13    12    1
13    14    12    ar
14    15    14    1
15    16    14    ar
16    17    16    1
17    18    16    ar
18    19    11    ar
19    19    18    ar
20    20    19    1
21    21    1     ar
22    21    7     ar
23    21    20    1
24    22    6     1
25    23    22    1
26    24    22    1
27    25    22    1
28    26    10    2
29    27    20    1
30    28    27    1
31    29    27    1
32    30    29    1
33    31    29    1
34    32    27    1
35    32    29    1
36    33    32    1
37    34    32    1
@<TRIPOS>SUBSTRUCTURE
1   LIG    1    
 
########## Name        : 1VRT.lig
########## Description : AM1BCC_CHARGES =  -0.0002 ORIGINAL_CHARGES =  -0.0000

@<TRIPOS>MOLECULE
1VRT.lig
34    37    1     0     0    
SMALL
USER_CHARGES
@<TRIPOS>ATOM
1     N1       4.0540  -36.9310   22.2210 N.ar    1  LIG  -0.6650  -0.6200 
2     C1       4.9660  -36.2380   22.9390 C.ar    1  LIG   0.3947   0.1600 
3     H1       6.0082  -36.2811   22.6707 H       1  LIG   0.0281   0.1500 
4     C2       4.6240  -35.4500   24.0360 C.ar    1  LIG  -0.2334  -0.1500 
5     H2       5.3884  -34.9151   24.5740 H       1  LIG   0.1480   0.1500 
6     C3       3.3050  -35.3690   24.4150 C.ar    1  LIG  -0.0698  -0.1435 
7     C4       2.3460  -36.0770   23.6860 C.ar    1  LIG  -0.0398   0.1170 
8     N2       0.9890  -36.0280   24.1030 N.am    1  LIG  -0.4596  -0.5470 
9     H3       0.7643  -35.9928   25.0860 H       1  LIG   0.3311   0.3700 
10    C5      -0.1450  -36.0180   23.4080 C.2     1  LIG   0.7361   0.5438 
11    C6      -0.1190  -36.0770   21.8860 C.ar    1  LIG  -0.2550   0.0862 
12    C7      -1.1230  -35.3990   21.1890 C.ar    1  LIG  -0.0321  -0.1500 
13    H4      -1.7552  -34.6955   21.7041 H       1  LIG   0.1623   0.1500 
14    C8      -1.2960  -35.6300   19.8690 C.ar    1  LIG  -0.2723  -0.1500 
15    H5      -2.0662  -35.1073   19.3273 H       1  LIG   0.1522   0.1500 
16    C9      -0.4670  -36.5450   19.2400 C.ar    1  LIG   0.4373   0.1600 
17    H6      -0.5947  -36.7554   18.1915 H       1  LIG   0.0280   0.1500 
18    N3       0.5220  -37.2120   19.8740 N.ar    1  LIG  -0.6893  -0.6200 
19    C10      0.7040  -36.9790   21.1800 C.ar    1  LIG   0.6480   0.4100 
20    N4       1.7670  -37.6730   21.8260 N.pl3   1  LIG  -0.6924  -0.3690 
21    C11      2.7540  -36.8570   22.5840 C.ar    1  LIG   0.5805   0.4100 
22    C12      2.9040  -34.5090   25.6010 C.3     1  LIG  -0.0620   0.1435 
23    H7       2.2235  -33.7630   25.2820 H       1  LIG   0.0570   0.0000 
24    H8       2.4436  -35.1154   26.3371 H       1  LIG   0.0495   0.0000 
25    H9       3.7654  -34.0491   26.0108 H       1  LIG   0.0519   0.0000 
26    O1      -1.2400  -35.9060   23.9770 O.2     1  LIG  -0.6361  -0.5700 
27    C13      2.3440  -38.7570   21.0360 C.3     1  LIG   0.1354   0.0690 
28    H10      3.1238  -38.3754   20.4296 H       1  LIG   0.0981   0.1000 
29    C14      2.9380  -39.8900   21.8010 C.3     1  LIG  -0.1181  -0.2000 
30    H11      3.8890  -40.1268   21.3997 H       1  LIG   0.0732   0.1000 
31    H12      3.0430  -39.6129   22.8177 H       1  LIG   0.0789   0.1000 
32    C15      1.6390  -40.0610   21.0880 C.3     1  LIG  -0.1196  -0.2000 
33    H13      0.6832  -39.9283   21.5242 H       1  LIG   0.0807   0.1000 
34    H14      1.5292  -40.4423   20.1061 H       1  LIG   0.0733   0.1000 
@<TRIPOS>BOND
1     2     1     ar
2     3     2     1
3     4     2     ar
4     5     4     1
5     6     4     ar
6     7     6     ar
7     8     7     1
8     9     8     1
9     10    8     1
10    11    10    1
11    12    11    ar
12    13    12    1
13    14    12    ar
14    15    14    1
15    16    14    ar
16    17    16    1
17    18    16    ar
18    19    11    ar
19    19    18    ar
20    20    19    1
21    21    1     ar
22    21    7     ar
23    21    20    1
24    22    6     1
25    23    22    1
26    24    22    1
27    25    22    1
28    26    10    2
29    27    20    1
30    28    27    1
31    29    27    1
32    30    29    1
33    31    29    1
34    32    27    1
35    32    29    1
36    33    32    1
37    34    32    1
@<TRIPOS>SUBSTRUCTURE
1   LIG    1    
 
########## Name        : 1VRT.lig
########## Description : AM1BCC_CHARGES =  -0.0002 ORIGINAL_CHARGES =  -0.0000

@<TRIPOS>MOLECULE
1VRT.lig
34    37    1     0     0    
SMALL
USER_CHARGES
@<TRIPOS>ATOM
1     N1       4.0540  -36.9310   22.2210 N.ar    1  LIG  -0.6650  -0.6200 
2     C1       4.9660  -36.2380   22.9390 C.ar    1  LIG   0.3947   0.1600 
3     H1       6.0082  -36.2811   22.6707 H       1  LIG   0.0281   0.1500 
4     C2       4.6240  -35.4500   24.0360 C.ar    1  LIG  -0.2334  -0.1500 
5     H2       5.3884  -34.9151   24.5740 H       1  LIG   0.1480   0.1500 
6     C3       3.3050  -35.3690   24.4150 C.ar    1  LIG  -0.0698  -0.1435 
7     C4       2.3460  -36.0770   23.6860 C.ar    1  LIG  -0.0398   0.1170 
8     N2       0.9890  -36.0280   24.1030 N.am    1  LIG  -0.4596  -0.5470 
9     H3       0.7643  -35.9928   25.0860 H       1  LIG   0.3311   0.3700 
10    C5      -0.1450  -36.0180   23.4080 C.2     1  LIG   0.7361   0.5438 
11    C6      -0.1190  -36.0770   21.8860 C.ar    1  LIG  -0.2550   0.0862 
12    C7      -1.1230  -35.3990   21.1890 C.ar    1  LIG  -0.0321  -0.1500 
13    H4      -1.7552  -34.6955   21.7041 H       1  LIG   0.1623   0.1500 
14    C8      -1.2960  -35.6300   19.8690 C.ar    1  LIG  -0.2723  -0.1500 
15    H5      -2.0662  -35.1073   19.3273 H       1  LIG   0.1522   0.1500 
16    C9      -0.4670  -36.5450   19.2400 C.ar    1  LIG   0.4373   0.1600 
17    H6      -0.5947  -36.7554   18.1915 H       1  LIG   0.0280   0.1500 
18    N3       0.5220  -37.2120   19.8740 N.ar    1  LIG  -0.6893  -0.6200 
19    C10      0.7040  -36.9790   21.1800 C.ar    1  LIG   0.6480   0.4100 
20    N4       1.7670  -37.6730   21.8260 N.pl3   1  LIG  -0.6924  -0.3690 
21    C11      2.7540  -36.8570   22.5840 C.ar    1  LIG   0.5805   0.4100 
22    C12      2.9040  -34.5090   25.6010 C.3     1  LIG  -0.0620   0.1435 
23    H7       2.2235  -33.7630   25.2820 H       1  LIG   0.0570   0.0000 
24    H8       2.4436  -35.1154   26.3371 H       1  LIG   0.0495   0.0000 
25    H9       3.7654  -34.0491   26.0108 H       1  LIG   0.0519   0.0000 
26    O1      -1.2400  -35.9060   23.9770 O.2     1  LIG  -0.6361  -0.5700 
27    C13      2.3440  -38.7570   21.0360 C.3     1  LIG   0.1354   0.0690 
28    H10      3.1238  -38.3754   20.4296 H       1  LIG   0.0981   0.1000 
29    C14      2.9380  -39.8900   21.8010 C.3     1  LIG  -0.1181  -0.2000 
30    H11      3.8890  -40.1268   21.3997 H       1  LIG   0.0732   0.1000 
31    H12      3.0430  -39.6129   22.8177 H       1  LIG   0.0789   0.1000 
32    C15      1.6390  -40.0610   21.0880 C.3     1  LIG  -0.1196  -0.2000 
33    H13      0.6832  -39.9283   21.5242 H       1  LIG   0.0807   0.1000 
34    H14      1.5292  -40.4423   20.1061 H       1  LIG   0.0733   0.1000 
@<TRIPOS>BOND
1     2     1     ar
2     3     2     1
3     4     2     ar
4     5     4     1
5     6     4     ar
6     7     6     ar
7     8     7     1
8     9     8     1
9     10    8     1
10    11    10    1
11    12    11    ar
12    13    12    1
13    14    12    ar
14    15    14    1
15    16    14    ar
16    17    16    1
17    18    16    ar
18    19    11    ar
19    19    18    ar
20    20    19    1
21    21    1     ar
22    21    7     ar
23    21    20    1
24    22    6     1
25    23    22    1
26    24    22    1
27    25    22    1
28    26    10    2
29    27    20    1
30    28    27    1
31    29    27    1
32    30    29    1
33    31    29    1
34    32    27    1
35    32    29    1
36    33    32    1
37    34    32    1
@<TRIPOS>SUBSTRUCTURE
1   LIG    1    
 
########## Name        : 1VRT.lig
########## Description : AM1BCC_CHARGES =  -0.0002 ORIGINAL_CHARGES =  -0.0000

@<TRIPOS>MOLECULE
1VRT.lig
34    37    1     0     0    
SMALL
USER_CHARGES
@<TRIPOS>ATOM
1     N1       4.0540  -36.9310   22.2210 N.ar    1  LIG  -0.6650  -0.6200 
2     C1       4.9660  -36.2380   22.9390 C.ar    1  LIG   0.3947   0.1600 
3     H1       6.0082  -36.2811   22.6707 H       1  LIG   0.0281   0.1500 
4     C2       4.6240  -35.4500   24.0360 C.ar    1  LIG  -0.2334  -0.1500 
5     H2       5.3884  -34.9151   24.5740 H       1  LIG   0.1480   0.1500 
6     C3       3.3050  -35.3690   24.4150 C.ar    1  LIG  -0.0698  -0.1435 
7     C4       2.3460  -36.0770   23.6860 C.ar    1  LIG  -0.0398   0.1170 
8     N2       0.9890  -36.0280   24.1030 N.am    1  LIG  -0.4596  -0.5470 
9     H3       0.7643  -35.9928   25.0860 H       1  LIG   0.3311   0.3700 
10    C5      -0.1450  -36.0180   23.4080 C.2     1  LIG   0.7361   0.5438 
11    C6      -0.1190  -36.0770   21.8860 C.ar    1  LIG  -0.2550   0.0862 
12    C7      -1.1230  -35.3990   21.1890 C.ar    1  LIG  -0.0321  -0.1500 
13    H4      -1.7552  -34.6955   21.7041 H       1  LIG   0.1623   0.1500 
14    C8      -1.2960  -35.6300   19.8690 C.ar    1  LIG  -0.2723  -0.1500 
15    H5      -2.0662  -35.1073   19.3273 H       1  LIG   0.1522   0.1500 
16    C9      -0.4670  -36.5450   19.2400 C.ar    1  LIG   0.4373   0.1600 
17    H6      -0.5947  -36.7554   18.1915 H       1  LIG   0.0280   0.1500 
18    N3       0.5220  -37.2120   19.8740 N.ar    1  LIG  -0.6893  -0.6200 
19    C10      0.7040  -36.9790   21.1800 C.ar    1  LIG   0.6480   0.4100 
20    N4       1.7670  -37.6730   21.8260 N.pl3   1  LIG  -0.6924  -0.3690 
21    C11      2.7540  -36.8570   22.5840 C.ar    1  LIG   0.5805   0.4100 
22    C12      2.9040  -34.5090   25.6010 C.3     1  LIG  -0.0620   0.1435 
23    H7       2.2235  -33.7630   25.2820 H       1  LIG   0.0570   0.0000 
24    H8       2.4436  -35.1154   26.3371 H       1  LIG   0.0495   0.0000 
25    H9       3.7654  -34.0491   26.0108 H       1  LIG   0.0519   0.0000 
26    O1      -1.2400  -35.9060   23.9770 O.2     1  LIG  -0.6361  -0.5700 
27    C13      2.3440  -38.7570   21.0360 C.3     1  LIG   0.1354   0.0690 
28    H10      3.1238  -38.3754   20.4296 H       1  LIG   0.0981   0.1000 
29    C14      2.9380  -39.8900   21.8010 C.3     1  LIG  -0.1181  -0.2000 
30    H11      3.8890  -40.1268   21.3997 H       1  LIG   0.0732   0.1000 
31    H12      3.0430  -39.6129   22.8177 H       1  LIG   0.0789   0.1000 
32    C15      1.6390  -40.0610   21.0880 C.3     1  LIG  -0.1196  -0.2000 
33    H13      0.6832  -39.9283   21.5242 H       1  LIG   0.0807   0.1000 
34    H14      1.5292  -40.4423   20.1061 H       1  LIG   0.0733   0.1000 
@<TRIPOS>BOND
1     2     1     ar
2     3     2     1
3     4     2     ar
4     5     4     1
5     6     4     ar
6     7     6     ar
7     8     7     1
8     9     8     1
9     10    8     1
10    11    10    1
11    12    11    ar
12    13    12    1
13    14    12    ar
14    15    14    1
15    16    14    ar
16    17    16    1
17    18    16    ar
18    19    11    ar
19    19    18    ar
20    20    19    1
21    21    1     ar
22    21    7     ar
23    21    20    1
24    22    6     1
25    23    22    1
26    24    22    1
27    25    22    1
28    26    10    2
29    27    20    1
30    28    27    1
31    29    27    1
32    30    29    1
33    31    29    1
34    32    27    1
35    32    29    1
36    33    32    1
37    34    32    1
@<TRIPOS>SUBSTRUCTURE
1   LIG    1    
 
########## Name        : 1VRT.lig
########## Description : AM1BCC_CHARGES =  -0.0002 ORIGINAL_CHARGES =  -0.0000

@<TRIPOS>MOLECULE
1VRT.lig
34    37    1     0     0    
SMALL
USER_CHARGES
@<TRIPOS>ATOM
1     N1       4.0540  -36.9310   22.2210 N.ar    1  LIG  -0.6650  -0.6200 
2     C1       4.9660  -36.2380   22.9390 C.ar    1  LIG   0.3947   0.1600 
3     H1       6.0082  -36.2811   22.6707 H       1  LIG   0.0281   0.1500 
4     C2       4.6240  -35.4500   24.0360 C.ar    1  LIG  -0.2334  -0.1500 
5     H2       5.3884  -34.9151   24.5740 H       1  LIG   0.1480   0.1500 
6     C3       3.3050  -35.3690   24.4150 C.ar    1  LIG  -0.0698  -0.1435 
7     C4       2.3460  -36.0770   23.6860 C.ar    1  LIG  -0.0398   0.1170 
8     N2       0.9890  -36.0280   24.1030 N.am    1  LIG  -0.4596  -0.5470 
9     H3       0.7643  -35.9928   25.0860 H       1  LIG   0.3311   0.3700 
10    C5      -0.1450  -36.0180   23.4080 C.2     1  LIG   0.7361   0.5438 
11    C6      -0.1190  -36.0770   21.8860 C.ar    1  LIG  -0.2550   0.0862 
12    C7      -1.1230  -35.3990   21.1890 C.ar    1  LIG  -0.0321  -0.1500 
13    H4      -1.7552  -34.6955   21.7041 H       1  LIG   0.1623   0.1500 
14    C8      -1.2960  -35.6300   19.8690 C.ar    1  LIG  -0.2723  -0.1500 
15    H5      -2.0662  -35.1073   19.3273 H       1  LIG   0.1522   0.1500 
16    C9      -0.4670  -36.5450   19.2400 C.ar    1  LIG   0.4373   0.1600 
17    H6      -0.5947  -36.7554   18.1915 H       1  LIG   0.0280   0.1500 
18    N3       0.5220  -37.2120   19.8740 N.ar    1  LIG  -0.6893  -0.6200 
19    C10      0.7040  -36.9790   21.1800 C.ar    1  LIG   0.6480   0.4100 
20    N4       1.7670  -37.6730   21.8260 N.pl3   1  LIG  -0.6924  -0.3690 
21    C11      2.7540  -36.8570   22.5840 C.ar    1  LIG   0.5805   0.4100 
22    C12      2.9040  -34.5090   25.6010 C.3     1  LIG  -0.0620   0.1435 
23    H7       2.2235  -33.7630   25.2820 H       1  LIG   0.0570   0.0000 
24    H8       2.4436  -35.1154   26.3371 H       1  LIG   0.0495   0.0000 
25    H9       3.7654  -34.0491   26.0108 H       1  LIG   0.0519   0.0000 
26    O1      -1.2400  -35.9060   23.9770 O.2     1  LIG  -0.6361  -0.5700 
27    C13      2.3440  -38.7570   21.0360 C.3     1  LIG   0.1354   0.0690 
28    H10      3.1238  -38.3754   20.4296 H       1  LIG   0.0981   0.1000 
29    C14      2.9380  -39.8900   21.8010 C.3     1  LIG  -0.1181  -0.2000 
30    H11      3.8890  -40.1268   21.3997 H       1  LIG   0.0732   0.1000 
31    H12      3.0430  -39.6129   22.8177 H       1  LIG   0.0789   0.1000 
32    C15      1.6390  -40.0610   21.0880 C.3     1  LIG  -0.1196  -0.2000 
33    H13      0.6832  -39.9283   21.5242 H       1  LIG   0.0807   0.1000 
34    H14      1.5292  -40.4423   20.1061 H       1  LIG   0.0733   0.1000 
@<TRIPOS>BOND
1     2     1     ar
2     3     2     1
3     4     2     ar
4     5     4     1
5     6     4     ar
6     7     6     ar
7     8     7     1
8     9     8     1
9     10    8     1
10    11    10    1
11    12    11    ar
12    13    12    1
13    14    12    ar
14    15    14    1
15    16    14    ar
16    17    16    1
17    18    16    ar
18    19    11    ar
19    19    18    ar
20    20    19    1
21    21    1     ar
22    21    7     ar
23    21    20    1
24    22    6     1
25    23    22    1
26    24    22    1
27    25    22    1
28    26    10    2
29    27    20    1
30    28    27    1
31    29    27    1
32    30    29    1
33    31    29    1
34    32    27    1
35    32    29    1
36    33    32    1
37    34    32    1
@<TRIPOS>SUBSTRUCTURE
1   LIG    1    
 
########## Name        : 1VRT.lig
########## Description : AM1BCC_CHARGES =  -0.0002 ORIGINAL_CHARGES =  -0.0000

@<TRIPOS>MOLECULE
1VRT.lig
34    37    1     0     0    
SMALL
USER_CHARGES
@<TRIPOS>ATOM
1     N1       4.0540  -36.9310   22.2210 N.ar    1  LIG  -0.6650  -0.6200 
2     C1       4.9660  -36.2380   22.9390 C.ar    1  LIG   0.3947   0.1600 
3     H1       6.0082  -36.2811   22.6707 H       1  LIG   0.0281   0.1500 
4     C2       4.6240  -35.4500   24.0360 C.ar    1  LIG  -0.2334  -0.1500 
5     H2       5.3884  -34.9151   24.5740 H       1  LIG   0.1480   0.1500 
6     C3       3.3050  -35.3690   24.4150 C.ar    1  LIG  -0.0698  -0.1435 
7     C4       2.3460  -36.0770   23.6860 C.ar    1  LIG  -0.0398   0.1170 
8     N2       0.9890  -36.0280   24.1030 N.am    1  LIG  -0.4596  -0.5470 
9     H3       0.7643  -35.9928   25.0860 H       1  LIG   0.3311   0.3700 
10    C5      -0.1450  -36.0180   23.4080 C.2     1  LIG   0.7361   0.5438 
11    C6      -0.1190  -36.0770   21.8860 C.ar    1  LIG  -0.2550   0.0862 
12    C7      -1.1230  -35.3990   21.1890 C.ar    1  LIG  -0.0321  -0.1500 
13    H4      -1.7552  -34.6955   21.7041 H       1  LIG   0.1623   0.1500 
14    C8      -1.2960  -35.6300   19.8690 C.ar    1  LIG  -0.2723  -0.1500 
15    H5      -2.0662  -35.1073   19.3273 H       1  LIG   0.1522   0.1500 
16    C9      -0.4670  -36.5450   19.2400 C.ar    1  LIG   0.4373   0.1600 
17    H6      -0.5947  -36.7554   18.1915 H       1  LIG   0.0280   0.1500 
18    N3       0.5220  -37.2120   19.8740 N.ar    1  LIG  -0.6893  -0.6200 
19    C10      0.7040  -36.9790   21.1800 C.ar    1  LIG   0.6480   0.4100 
20    N4       1.7670  -37.6730   21.8260 N.pl3   1  LIG  -0.6924  -0.3690 
21    C11      2.7540  -36.8570   22.5840 C.ar    1  LIG   0.5805   0.4100 
22    C12      2.9040  -34.5090   25.6010 C.3     1  LIG  -0.0620   0.1435 
23    H7       2.2235  -33.7630   25.2820 H       1  LIG   0.0570   0.0000 
24    H8       2.4436  -35.1154   26.3371 H       1  LIG   0.0495   0.0000 
25    H9       3.7654  -34.0491   26.0108 H       1  LIG   0.0519   0.0000 
26    O1      -1.2400  -35.9060   23.9770 O.2     1  LIG  -0.6361  -0.5700 
27    C13      2.3440  -38.7570   21.0360 C.3     1  LIG   0.1354   0.0690 
28    H10      3.1238  -38.3754   20.4296 H       1  LIG   0.0981   0.1000 
29    C14      2.9380  -39.8900   21.8010 C.3     1  LIG  -0.1181  -0.2000 
30    H11      3.8890  -40.1268   21.3997 H       1  LIG   0.0732   0.1000 
31    H12      3.0430  -39.6129   22.8177 H       1  LIG   0.0789   0.1000 
32    C15      1.6390  -40.0610   21.0880 C.3     1  LIG  -0.1196  -0.2000 
33    H13      0.6832  -39.9283   21.5242 H       1  LIG   0.0807   0.1000 
34    H14      1.5292  -40.4423   20.1061 H       1  LIG   0.0733   0.1000 
@<TRIPOS>BOND
1     2     1     ar
2     3     2     1
3     4     2     ar
4     5     4     1
5     6     4     ar
6     7     6     ar
7     8     7     1
8     9     8     1
9     10    8     1
10    11    10    1
11    12    11    ar
12    13    12    1
13    14    12    ar
14    15    14    1
15    16    14    ar
16    17    16    1
17    18    16    ar
18    19    11    ar
19    19    18    ar
20    20    19    1
21    21    1     ar
22    21    7     ar
23    21    20    1
24    22    6     1
25    23    22    1
26    24    22    1
27    25    22    1
28    26    10    2
29    27    20    1
30    28    27    1
31    29    27    1
32    30    29    1
33    31    29    1
34    32    27    1
35    32    29    1
36    33    32    1
37    34    32    1
@<TRIPOS>SUBSTRUCTURE
1   LIG    1    
 
########## Name        : 1VRT.lig
########## Description : AM1BCC_CHARGES =  -0.0002 ORIGINAL_CHARGES =  -0.0000

@<TRIPOS>MOLECULE
1VRT.lig
34    37    1     0     0    
SMALL
USER_CHARGES
@<TRIPOS>ATOM
1     N1       4.0540  -36.9310   22.2210 N.ar    1  LIG  -0.6650  -0.6200 
2     C1       4.9660  -36.2380   22.9390 C.ar    1  LIG   0.3947   0.1600 
3     H1       6.0082  -36.2811   22.6707 H       1  LIG   0.0281   0.1500 
4     C2       4.6240  -35.4500   24.0360 C.ar    1  LIG  -0.2334  -0.1500 
5     H2       5.3884  -34.9151   24.5740 H       1  LIG   0.1480   0.1500 
6     C3       3.3050  -35.3690   24.4150 C.ar    1  LIG  -0.0698  -0.1435 
7     C4       2.3460  -36.0770   23.6860 C.ar    1  LIG  -0.0398   0.1170 
8     N2       0.9890  -36.0280   24.1030 N.am    1  LIG  -0.4596  -0.5470 
9     H3       0.7643  -35.9928   25.0860 H       1  LIG   0.3311   0.3700 
10    C5      -0.1450  -36.0180   23.4080 C.2     1  LIG   0.7361   0.5438 
11    C6      -0.1190  -36.0770   21.8860 C.ar    1  LIG  -0.2550   0.0862 
12    C7      -1.1230  -35.3990   21.1890 C.ar    1  LIG  -0.0321  -0.1500 
13    H4      -1.7552  -34.6955   21.7041 H       1  LIG   0.1623   0.1500 
14    C8      -1.2960  -35.6300   19.8690 C.ar    1  LIG  -0.2723  -0.1500 
15    H5      -2.0662  -35.1073   19.3273 H       1  LIG   0.1522   0.1500 
16    C9      -0.4670  -36.5450   19.2400 C.ar    1  LIG   0.4373   0.1600 
17    H6      -0.5947  -36.7554   18.1915 H       1  LIG   0.0280   0.1500 
18    N3       0.5220  -37.2120   19.8740 N.ar    1  LIG  -0.6893  -0.6200 
19    C10      0.7040  -36.9790   21.1800 C.ar    1  LIG   0.6480   0.4100 
20    N4       1.7670  -37.6730   21.8260 N.pl3   1  LIG  -0.6924  -0.3690 
21    C11      2.7540  -36.8570   22.5840 C.ar    1  LIG   0.5805   0.4100 
22    C12      2.9040  -34.5090   25.6010 C.3     1  LIG  -0.0620   0.1435 
23    H7       2.2235  -33.7630   25.2820 H       1  LIG   0.0570   0.0000 
24    H8       2.4436  -35.1154   26.3371 H       1  LIG   0.0495   0.0000 
25    H9       3.7654  -34.0491   26.0108 H       1  LIG   0.0519   0.0000 
26    O1      -1.2400  -35.9060   23.9770 O.2     1  LIG  -0.6361  -0.5700 
27    C13      2.3440  -38.7570   21.0360 C.3     1  LIG   0.1354   0.0690 
28    H10      3.1238  -38.3754   20.4296 H       1  LIG   0.0981   0.1000 
29    C14      2.9380  -39.8900   21.8010 C.3     1  LIG  -0.1181  -0.2000 
30    H11      3.8890  -40.1268   21.3997 H       1  LIG   0.0732   0.1000 
31    H12      3.0430  -39.6129   22.8177 H       1  LIG   0.0789   0.1000 
32    C15      1.6390  -40.0610   21.0880 C.3     1  LIG  -0.1196  -0.2000 
33    H13      0.6832  -39.9283   21.5242 H       1  LIG   0.0807   0.1000 
34    H14      1.5292  -40.4423   20.1061 H       1  LIG   0.0733   0.1000 
@<TRIPOS>BOND
1     2     1     ar
2     3     2     1
3     4     2     ar
4     5     4     1
5     6     4     ar
6     7     6     ar
7     8     7     1
8     9     8     1
9     10    8     1
10    11    10    1
11    12    11    ar
12    13    12    1
13    14    12    ar
14    15    14    1
15    16    14    ar
16    17    16    1
17    18    16    ar
18    19    11    ar
19    19    18    ar
20    20    19    1
21    21    1     ar
22    21    7     ar
23    21    20    1
24    22    6     1
25    23    22    1
26    24    22    1
27    25    22    1
28    26    10    2
29    27    20    1
30    28    27    1
31    29    27    1
32    30    29    1
33    31    29    1
34    32    27    1
35    32    29    1
36    33    32    1
37    34    32    1
@<TRIPOS>SUBSTRUCTURE
1   LIG    1    
 
########## Name        : 1VRT.lig
########## Description : AM1BCC_CHARGES =  -0.0002 ORIGINAL_CHARGES =  -0.0000

@<TRIPOS>MOLECULE
1VRT.lig
34    37    1     0     0    
SMALL
USER_CHARGES
@<TRIPOS>ATOM
1     N1       4.0540  -36.9310   22.2210 N.ar    1  LIG  -0.6650  -0.6200 
2     C1       4.9660  -36.2380   22.9390 C.ar    1  LIG   0.3947   0.1600 
3     H1       6.0082  -36.2811   22.6707 H       1  LIG   0.0281   0.1500 
4     C2       4.6240  -35.4500   24.0360 C.ar    1  LIG  -0.2334  -0.1500 
5     H2       5.3884  -34.9151   24.5740 H       1  LIG   0.1480   0.1500 
6     C3       3.3050  -35.3690   24.4150 C.ar    1  LIG  -0.0698  -0.1435 
7     C4       2.3460  -36.0770   23.6860 C.ar    1  LIG  -0.0398   0.1170 
8     N2       0.9890  -36.0280   24.1030 N.am    1  LIG  -0.4596  -0.5470 
9     H3       0.7643  -35.9928   25.0860 H       1  LIG   0.3311   0.3700 
10    C5      -0.1450  -36.0180   23.4080 C.2     1  LIG   0.7361   0.5438 
11    C6      -0.1190  -36.0770   21.8860 C.ar    1  LIG  -0.2550   0.0862 
12    C7      -1.1230  -35.3990   21.1890 C.ar    1  LIG  -0.0321  -0.1500 
13    H4      -1.7552  -34.6955   21.7041 H       1  LIG   0.1623   0.1500 
14    C8      -1.2960  -35.6300   19.8690 C.ar    1  LIG  -0.2723  -0.1500 
15    H5      -2.0662  -35.1073   19.3273 H       1  LIG   0.1522   0.1500 
16    C9      -0.4670  -36.5450   19.2400 C.ar    1  LIG   0.4373   0.1600 
17    H6      -0.5947  -36.7554   18.1915 H       1  LIG   0.0280   0.1500 
18    N3       0.5220  -37.2120   19.8740 N.ar    1  LIG  -0.6893  -0.6200 
19    C10      0.7040  -36.9790   21.1800 C.ar    1  LIG   0.6480   0.4100 
20    N4       1.7670  -37.6730   21.8260 N.pl3   1  LIG  -0.6924  -0.3690 
21    C11      2.7540  -36.8570   22.5840 C.ar    1  LIG   0.5805   0.4100 
22    C12      2.9040  -34.5090   25.6010 C.3     1  LIG  -0.0620   0.1435 
23    H7       2.2235  -33.7630   25.2820 H       1  LIG   0.0570   0.0000 
24    H8       2.4436  -35.1154   26.3371 H       1  LIG   0.0495   0.0000 
25    H9       3.7654  -34.0491   26.0108 H       1  LIG   0.0519   0.0000 
26    O1      -1.2400  -35.9060   23.9770 O.2     1  LIG  -0.6361  -0.5700 
27    C13      2.3440  -38.7570   21.0360 C.3     1  LIG   0.1354   0.0690 
28    H10      3.1238  -38.3754   20.4296 H       1  LIG   0.0981   0.1000 
29    C14      2.9380  -39.8900   21.8010 C.3     1  LIG  -0.1181  -0.2000 
30    H11      3.8890  -40.1268   21.3997 H       1  LIG   0.0732   0.1000 
31    H12      3.0430  -39.6129   22.8177 H       1  LIG   0.0789   0.1000 
32    C15      1.6390  -40.0610   21.0880 C.3     1  LIG  -0.1196  -0.2000 
33    H13      0.6832  -39.9283   21.5242 H       1  LIG   0.0807   0.1000 
34    H14      1.5292  -40.4423   20.1061 H       1  LIG   0.0733   0.1000 
@<TRIPOS>BOND
1     2     1     ar
2     3     2     1
3     4     2     ar
4     5     4     1
5     6     4     ar
6     7     6     ar
7     8     7     1
8     9     8     1
9     10    8     1
10    11    10    1
11    12    11    ar
12    13    12    1
13    14    12    ar
14    15    14    1
15    16    14    ar
16    17    16    1
17    18    16    ar
18    19    11    ar
19    19    18    ar
20    20    19    1
21    21    1     ar
22    21    7     ar
23    21    20    1
24    22    6     1
25    23    22    1
26    24    22    1
27    25    22    1
28    26    10    2
29    27    20    1
30    28    27    1
31    29    27    1
32    30    29    1
33    31    29    1
34    32    27    1
35    32    29    1
36    33    32    1
37    34    32    1
@<TRIPOS>SUBSTRUCTURE
1   LIG    1    
 
########## Name        : 1VRT.lig
########## Description : AM1BCC_CHARGES =  -0.0002 ORIGINAL_CHARGES =  -0.0000

@<TRIPOS>MOLECULE
1VRT.lig
34    37    1     0     0    
SMALL
USER_CHARGES
@<TRIPOS>ATOM
1     N1       4.0540  -36.9310   22.2210 N.ar    1  LIG  -0.6650  -0.6200 
2     C1       4.9660  -36.2380   22.9390 C.ar    1  LIG   0.3947   0.1600 
3     H1       6.0082  -36.2811   22.6707 H       1  LIG   0.0281   0.1500 
4     C2       4.6240  -35.4500   24.0360 C.ar    1  LIG  -0.2334  -0.1500 
5     H2       5.3884  -34.9151   24.5740 H       1  LIG   0.1480   0.1500 
6     C3       3.3050  -35.3690   24.4150 C.ar    1  LIG  -0.0698  -0.1435 
7     C4       2.3460  -36.0770   23.6860 C.ar    1  LIG  -0.0398   0.1170 
8     N2       0.9890  -36.0280   24.1030 N.am    1  LIG  -0.4596  -0.5470 
9     H3       0.7643  -35.9928   25.0860 H       1  LIG   0.3311   0.3700 
10    C5      -0.1450  -36.0180   23.4080 C.2     1  LIG   0.7361   0.5438 
11    C6      -0.1190  -36.0770   21.8860 C.ar    1  LIG  -0.2550   0.0862 
12    C7      -1.1230  -35.3990   21.1890 C.ar    1  LIG  -0.0321  -0.1500 
13    H4      -1.7552  -34.6955   21.7041 H       1  LIG   0.1623   0.1500 
14    C8      -1.2960  -35.6300   19.8690 C.ar    1  LIG  -0.2723  -0.1500 
15    H5      -2.0662  -35.1073   19.3273 H       1  LIG   0.1522   0.1500 
16    C9      -0.4670  -36.5450   19.2400 C.ar    1  LIG   0.4373   0.1600 
17    H6      -0.5947  -36.7554   18.1915 H       1  LIG   0.0280   0.1500 
18    N3       0.5220  -37.2120   19.8740 N.ar    1  LIG  -0.6893  -0.6200 
19    C10      0.7040  -36.9790   21.1800 C.ar    1  LIG   0.6480   0.4100 
20    N4       1.7670  -37.6730   21.8260 N.pl3   1  LIG  -0.6924  -0.3690 
21    C11      2.7540  -36.8570   22.5840 C.ar    1  LIG   0.5805   0.4100 
22    C12      2.9040  -34.5090   25.6010 C.3     1  LIG  -0.0620   0.1435 
23    H7       2.2235  -33.7630   25.2820 H       1  LIG   0.0570   0.0000 
24    H8       2.4436  -35.1154   26.3371 H       1  LIG   0.0495   0.0000 
25    H9       3.7654  -34.0491   26.0108 H       1  LIG   0.0519   0.0000 
26    O1      -1.2400  -35.9060   23.9770 O.2     1  LIG  -0.6361  -0.5700 
27    C13      2.3440  -38.7570   21.0360 C.3     1  LIG   0.1354   0.0690 
28    H10      3.1238  -38.3754   20.4296 H       1  LIG   0.0981   0.1000 
29    C14      2.9380  -39.8900   21.8010 C.3     1  LIG  -0.1181  -0.2000 
30    H11      3.8890  -40.1268   21.3997 H       1  LIG   0.0732   0.1000 
31    H12      3.0430  -39.6129   22.8177 H       1  LIG   0.0789   0.1000 
32    C15      1.6390  -40.0610   21.0880 C.3     1  LIG  -0.1196  -0.2000 
33    H13      0.6832  -39.9283   21.5242 H       1  LIG   0.0807   0.1000 
34    H14      1.5292  -40.4423   20.1061 H       1  LIG   0.0733   0.1000 
@<TRIPOS>BOND
1     2     1     ar
2     3     2     1
3     4     2     ar
4     5     4     1
5     6     4     ar
6     7     6     ar
7     8     7     1
8     9     8     1
9     10    8     1
10    11    10    1
11    12    11    ar
12    13    12    1
13    14    12    ar
14    15    14    1
15    16    14    ar
16    17    16    1
17    18    16    ar
18    19    11    ar
19    19    18    ar
20    20    19    1
21    21    1     ar
22    21    7     ar
23    21    20    1
24    22    6     1
25    23    22    1
26    24    22    1
27    25    22    1
28    26    10    2
29    27    20    1
30    28    27    1
31    29    27    1
32    30    29    1
33    31    29    1
34    32    27    1
35    32    29    1
36    33    32    1
37    34    32    1
@<TRIPOS>SUBSTRUCTURE
1   LIG    1    
 
########## Name        : 1VRT.lig
########## Description : AM1BCC_CHARGES =  -0.0002 ORIGINAL_CHARGES =  -0.0000

@<TRIPOS>MOLECULE
1VRT.lig
34    37    1     0     0    
SMALL
USER_CHARGES
@<TRIPOS>ATOM
1     N1       4.0540  -36.9310   22.2210 N.ar    1  LIG  -0.6650  -0.6200 
2     C1       4.9660  -36.2380   22.9390 C.ar    1  LIG   0.3947   0.1600 
3     H1       6.0082  -36.2811   22.6707 H       1  LIG   0.0281   0.1500 
4     C2       4.6240  -35.4500   24.0360 C.ar    1  LIG  -0.2334  -0.1500 
5     H2       5.3884  -34.9151   24.5740 H       1  LIG   0.1480   0.1500 
6     C3       3.3050  -35.3690   24.4150 C.ar    1  LIG  -0.0698  -0.1435 
7     C4       2.3460  -36.0770   23.6860 C.ar    1  LIG  -0.0398   0.1170 
8     N2       0.9890  -36.0280   24.1030 N.am    1  LIG  -0.4596  -0.5470 
9     H3       0.7643  -35.9928   25.0860 H       1  LIG   0.3311   0.3700 
10    C5      -0.1450  -36.0180   23.4080 C.2     1  LIG   0.7361   0.5438 
11    C6      -0.1190  -36.0770   21.8860 C.ar    1  LIG  -0.2550   0.0862 
12    C7      -1.1230  -35.3990   21.1890 C.ar    1  LIG  -0.0321  -0.1500 
13    H4      -1.7552  -34.6955   21.7041 H       1  LIG   0.1623   0.1500 
14    C8      -1.2960  -35.6300   19.8690 C.ar    1  LIG  -0.2723  -0.1500 
15    H5      -2.0662  -35.1073   19.3273 H       1  LIG   0.1522   0.1500 
16    C9      -0.4670  -36.5450   19.2400 C.ar    1  LIG   0.4373   0.1600 
17    H6      -0.5947  -36.7554   18.1915 H       1  LIG   0.0280   0.1500 
18    N3       0.5220  -37.2120   19.8740 N.ar    1  LIG  -0.6893  -0.6200 
19    C10      0.7040  -36.9790   21.1800 C.ar    1  LIG   0.6480   0.4100 
20    N4       1.7670  -37.6730   21.8260 N.pl3   1  LIG  -0.6924  -0.3690 
21    C11      2.7540  -36.8570   22.5840 C.ar    1  LIG   0.5805   0.4100 
22    C12      2.9040  -34.5090   25.6010 C.3     1  LIG  -0.0620   0.1435 
23    H7       2.2235  -33.7630   25.2820 H       1  LIG   0.0570   0.0000 
24    H8       2.4436  -35.1154   26.3371 H       1  LIG   0.0495   0.0000 
25    H9       3.7654  -34.0491   26.0108 H       1  LIG   0.0519   0.0000 
26    O1      -1.2400  -35.9060   23.9770 O.2     1  LIG  -0.6361  -0.5700 
27    C13      2.3440  -38.7570   21.0360 C.3     1  LIG   0.1354   0.0690 
28    H10      3.1238  -38.3754   20.4296 H       1  LIG   0.0981   0.1000 
29    C14      2.9380  -39.8900   21.8010 C.3     1  LIG  -0.1181  -0.2000 
30    H11      3.8890  -40.1268   21.3997 H       1  LIG   0.0732   0.1000 
31    H12      3.0430  -39.6129   22.8177 H       1  LIG   0.0789   0.1000 
32    C15      1.6390  -40.0610   21.0880 C.3     1  LIG  -0.1196  -0.2000 
33    H13      0.6832  -39.9283   21.5242 H       1  LIG   0.0807   0.1000 
34    H14      1.5292  -40.4423   20.1061 H       1  LIG   0.0733   0.1000 
@<TRIPOS>BOND
1     2     1     ar
2     3     2     1
3     4     2     ar
4     5     4     1
5     6     4     ar
6     7     6     ar
7     8     7     1
8     9     8     1
9     10    8     1
10    11    10    1
11    12    11    ar
12    13    12    1
13    14    12    ar
14    15    14    1
15    16    14    ar
16    17    16    1
17    18    16    ar
18    19    11    ar
19    19    18    ar
20    20    19    1
21    21    1     ar
22    21    7     ar
23    21    20    1
24    22    6     1
25    23    22    1
26    24    22    1
27    25    22    1
28    26    10    2
29    27    20    1
30    28    27    1
31    29    27    1
32    30    29    1
33    31    29    1
34    32    27    1
35    32    29    1
36    33    32    1
37    34    32    1
@<TRIPOS>SUBSTRUCTURE
1   LIG    1    
 
########## Name        : 1VRT.lig
########## Description : AM1BCC_CHARGES =  -0.0002 ORIGINAL_CHARGES =  -0.0000

@<TRIPOS>MOLECULE
1VRT.lig
34    37    1     0     0    
SMALL
USER_CHARGES
@<TRIPOS>ATOM
1     N1       4.0540  -36.9310   22.2210 N.ar    1  LIG  -0.6650  -0.6200 
2     C1       4.9660  -36.2380   22.9390 C.ar    1  LIG   0.3947   0.1600 
3     H1       6.0082  -36.2811   22.6707 H       1  LIG   0.0281   0.1500 
4     C2       4.6240  -35.4500   24.0360 C.ar    1  LIG  -0.2334  -0.1500 
5     H2       5.3884  -34.9151   24.5740 H       1  LIG   0.1480   0.1500 
6     C3       3.3050  -35.3690   24.4150 C.ar    1  LIG  -0.0698  -0.1435 
7     C4       2.3460  -36.0770   23.6860 C.ar    1  LIG  -0.0398   0.1170 
8     N2       0.9890  -36.0280   24.1030 N.am    1  LIG  -0.4596  -0.5470 
9     H3       0.7643  -35.9928   25.0860 H       1  LIG   0.3311   0.3700 
10    C5      -0.1450  -36.0180   23.4080 C.2     1  LIG   0.7361   0.5438 
11    C6      -0.1190  -36.0770   21.8860 C.ar    1  LIG  -0.2550   0.0862 
12    C7      -1.1230  -35.3990   21.1890 C.ar    1  LIG  -0.0321  -0.1500 
13    H4      -1.7552  -34.6955   21.7041 H       1  LIG   0.1623   0.1500 
14    C8      -1.2960  -35.6300   19.8690 C.ar    1  LIG  -0.2723  -0.1500 
15    H5      -2.0662  -35.1073   19.3273 H       1  LIG   0.1522   0.1500 
16    C9      -0.4670  -36.5450   19.2400 C.ar    1  LIG   0.4373   0.1600 
17    H6      -0.5947  -36.7554   18.1915 H       1  LIG   0.0280   0.1500 
18    N3       0.5220  -37.2120   19.8740 N.ar    1  LIG  -0.6893  -0.6200 
19    C10      0.7040  -36.9790   21.1800 C.ar    1  LIG   0.6480   0.4100 
20    N4       1.7670  -37.6730   21.8260 N.pl3   1  LIG  -0.6924  -0.3690 
21    C11      2.7540  -36.8570   22.5840 C.ar    1  LIG   0.5805   0.4100 
22    C12      2.9040  -34.5090   25.6010 C.3     1  LIG  -0.0620   0.1435 
23    H7       2.2235  -33.7630   25.2820 H       1  LIG   0.0570   0.0000 
24    H8       2.4436  -35.1154   26.3371 H       1  LIG   0.0495   0.0000 
25    H9       3.7654  -34.0491   26.0108 H       1  LIG   0.0519   0.0000 
26    O1      -1.2400  -35.9060   23.9770 O.2     1  LIG  -0.6361  -0.5700 
27    C13      2.3440  -38.7570   21.0360 C.3     1  LIG   0.1354   0.0690 
28    H10      3.1238  -38.3754   20.4296 H       1  LIG   0.0981   0.1000 
29    C14      2.9380  -39.8900   21.8010 C.3     1  LIG  -0.1181  -0.2000 
30    H11      3.8890  -40.1268   21.3997 H       1  LIG   0.0732   0.1000 
31    H12      3.0430  -39.6129   22.8177 H       1  LIG   0.0789   0.1000 
32    C15      1.6390  -40.0610   21.0880 C.3     1  LIG  -0.1196  -0.2000 
33    H13      0.6832  -39.9283   21.5242 H       1  LIG   0.0807   0.1000 
34    H14      1.5292  -40.4423   20.1061 H       1  LIG   0.0733   0.1000 
@<TRIPOS>BOND
1     2     1     ar
2     3     2     1
3     4     2     ar
4     5     4     1
5     6     4     ar
6     7     6     ar
7     8     7     1
8     9     8     1
9     10    8     1
10    11    10    1
11    12    11    ar
12    13    12    1
13    14    12    ar
14    15    14    1
15    16    14    ar
16    17    16    1
17    18    16    ar
18    19    11    ar
19    19    18    ar
20    20    19    1
21    21    1     ar
22    21    7     ar
23    21    20    1
24    22    6     1
25    23    22    1
26    24    22    1
27    25    22    1
28    26    10    2
29    27    20    1
30    28    27    1
31    29    27    1
32    30    29    1
33    31    29    1
34    32    27    1
35    32    29    1
36    33    32    1
37    34    32    1
@<TRIPOS>SUBSTRUCTURE
1   LIG    1    
 
########## Name        : 1VRT.lig
########## Description : AM1BCC_CHARGES =  -0.0002 ORIGINAL_CHARGES =  -0.0000

@<TRIPOS>MOLECULE
1VRT.lig
34    37    1     0     0    
SMALL
USER_CHARGES
@<TRIPOS>ATOM
1     N1       4.0540  -36.9310   22.2210 N.ar    1  LIG  -0.6650  -0.6200 
2     C1       4.9660  -36.2380   22.9390 C.ar    1  LIG   0.3947   0.1600 
3     H1       6.0082  -36.2811   22.6707 H       1  LIG   0.0281   0.1500 
4     C2       4.6240  -35.4500   24.0360 C.ar    1  LIG  -0.2334  -0.1500 
5     H2       5.3884  -34.9151   24.5740 H       1  LIG   0.1480   0.1500 
6     C3       3.3050  -35.3690   24.4150 C.ar    1  LIG  -0.0698  -0.1435 
7     C4       2.3460  -36.0770   23.6860 C.ar    1  LIG  -0.0398   0.1170 
8     N2       0.9890  -36.0280   24.1030 N.am    1  LIG  -0.4596  -0.5470 
9     H3       0.7643  -35.9928   25.0860 H       1  LIG   0.3311   0.3700 
10    C5      -0.1450  -36.0180   23.4080 C.2     1  LIG   0.7361   0.5438 
11    C6      -0.1190  -36.0770   21.8860 C.ar    1  LIG  -0.2550   0.0862 
12    C7      -1.1230  -35.3990   21.1890 C.ar    1  LIG  -0.0321  -0.1500 
13    H4      -1.7552  -34.6955   21.7041 H       1  LIG   0.1623   0.1500 
14    C8      -1.2960  -35.6300   19.8690 C.ar    1  LIG  -0.2723  -0.1500 
15    H5      -2.0662  -35.1073   19.3273 H       1  LIG   0.1522   0.1500 
16    C9      -0.4670  -36.5450   19.2400 C.ar    1  LIG   0.4373   0.1600 
17    H6      -0.5947  -36.7554   18.1915 H       1  LIG   0.0280   0.1500 
18    N3       0.5220  -37.2120   19.8740 N.ar    1  LIG  -0.6893  -0.6200 
19    C10      0.7040  -36.9790   21.1800 C.ar    1  LIG   0.6480   0.4100 
20    N4       1.7670  -37.6730   21.8260 N.pl3   1  LIG  -0.6924  -0.3690 
21    C11      2.7540  -36.8570   22.5840 C.ar    1  LIG   0.5805   0.4100 
22    C12      2.9040  -34.5090   25.6010 C.3     1  LIG  -0.0620   0.1435 
23    H7       2.2235  -33.7630   25.2820 H       1  LIG   0.0570   0.0000 
24    H8       2.4436  -35.1154   26.3371 H       1  LIG   0.0495   0.0000 
25    H9       3.7654  -34.0491   26.0108 H       1  LIG   0.0519   0.0000 
26    O1      -1.2400  -35.9060   23.9770 O.2     1  LIG  -0.6361  -0.5700 
27    C13      2.3440  -38.7570   21.0360 C.3     1  LIG   0.1354   0.0690 
28    H10      3.1238  -38.3754   20.4296 H       1  LIG   0.0981   0.1000 
29    C14      2.9380  -39.8900   21.8010 C.3     1  LIG  -0.1181  -0.2000 
30    H11      3.8890  -40.1268   21.3997 H       1  LIG   0.0732   0.1000 
31    H12      3.0430  -39.6129   22.8177 H       1  LIG   0.0789   0.1000 
32    C15      1.6390  -40.0610   21.0880 C.3     1  LIG  -0.1196  -0.2000 
33    H13      0.6832  -39.9283   21.5242 H       1  LIG   0.0807   0.1000 
34    H14      1.5292  -40.4423   20.1061 H       1  LIG   0.0733   0.1000 
@<TRIPOS>BOND
1     2     1     ar
2     3     2     1
3     4     2     ar
4     5     4     1
5     6     4     ar
6     7     6     ar
7     8     7     1
8     9     8     1
9     10    8     1
10    11    10    1
11    12    11    ar
12    13    12    1
13    14    12    ar
14    15    14    1
15    16    14    ar
16    17    16    1
17    18    16    ar
18    19    11    ar
19    19    18    ar
20    20    19    1
21    21    1     ar
22    21    7     ar
23    21    20    1
24    22    6     1
25    23    22    1
26    24    22    1
27    25    22    1
28    26    10    2
29    27    20    1
30    28    27    1
31    29    27    1
32    30    29    1
33    31    29    1
34    32    27    1
35    32    29    1
36    33    32    1
37    34    32    1
@<TRIPOS>SUBSTRUCTURE
1   LIG    1    
 
########## Name        : 1VRT.lig
########## Description : AM1BCC_CHARGES =  -0.0002 ORIGINAL_CHARGES =  -0.0000

@<TRIPOS>MOLECULE
1VRT.lig
34    37    1     0     0    
SMALL
USER_CHARGES
@<TRIPOS>ATOM
1     N1       4.0540  -36.9310   22.2210 N.ar    1  LIG  -0.6650  -0.6200 
2     C1       4.9660  -36.2380   22.9390 C.ar    1  LIG   0.3947   0.1600 
3     H1       6.0082  -36.2811   22.6707 H       1  LIG   0.0281   0.1500 
4     C2       4.6240  -35.4500   24.0360 C.ar    1  LIG  -0.2334  -0.1500 
5     H2       5.3884  -34.9151   24.5740 H       1  LIG   0.1480   0.1500 
6     C3       3.3050  -35.3690   24.4150 C.ar    1  LIG  -0.0698  -0.1435 
7     C4       2.3460  -36.0770   23.6860 C.ar    1  LIG  -0.0398   0.1170 
8     N2       0.9890  -36.0280   24.1030 N.am    1  LIG  -0.4596  -0.5470 
9     H3       0.7643  -35.9928   25.0860 H       1  LIG   0.3311   0.3700 
10    C5      -0.1450  -36.0180   23.4080 C.2     1  LIG   0.7361   0.5438 
11    C6      -0.1190  -36.0770   21.8860 C.ar    1  LIG  -0.2550   0.0862 
12    C7      -1.1230  -35.3990   21.1890 C.ar    1  LIG  -0.0321  -0.1500 
13    H4      -1.7552  -34.6955   21.7041 H       1  LIG   0.1623   0.1500 
14    C8      -1.2960  -35.6300   19.8690 C.ar    1  LIG  -0.2723  -0.1500 
15    H5      -2.0662  -35.1073   19.3273 H       1  LIG   0.1522   0.1500 
16    C9      -0.4670  -36.5450   19.2400 C.ar    1  LIG   0.4373   0.1600 
17    H6      -0.5947  -36.7554   18.1915 H       1  LIG   0.0280   0.1500 
18    N3       0.5220  -37.2120   19.8740 N.ar    1  LIG  -0.6893  -0.6200 
19    C10      0.7040  -36.9790   21.1800 C.ar    1  LIG   0.6480   0.4100 
20    N4       1.7670  -37.6730   21.8260 N.pl3   1  LIG  -0.6924  -0.3690 
21    C11      2.7540  -36.8570   22.5840 C.ar    1  LIG   0.5805   0.4100 
22    C12      2.9040  -34.5090   25.6010 C.3     1  LIG  -0.0620   0.1435 
23    H7       2.2235  -33.7630   25.2820 H       1  LIG   0.0570   0.0000 
24    H8       2.4436  -35.1154   26.3371 H       1  LIG   0.0495   0.0000 
25    H9       3.7654  -34.0491   26.0108 H       1  LIG   0.0519   0.0000 
26    O1      -1.2400  -35.9060   23.9770 O.2     1  LIG  -0.6361  -0.5700 
27    C13      2.3440  -38.7570   21.0360 C.3     1  LIG   0.1354   0.0690 
28    H10      3.1238  -38.3754   20.4296 H       1  LIG   0.0981   0.1000 
29    C14      2.9380  -39.8900   21.8010 C.3     1  LIG  -0.1181  -0.2000 
30    H11      3.8890  -40.1268   21.3997 H       1  LIG   0.0732   0.1000 
31    H12      3.0430  -39.6129   22.8177 H       1  LIG   0.0789   0.1000 
32    C15      1.6390  -40.0610   21.0880 C.3     1  LIG  -0.1196  -0.2000 
33    H13      0.6832  -39.9283   21.5242 H       1  LIG   0.0807   0.1000 
34    H14      1.5292  -40.4423   20.1061 H       1  LIG   0.0733   0.1000 
@<TRIPOS>BOND
1     2     1     ar
2     3     2     1
3     4     2     ar
4     5     4     1
5     6     4     ar
6     7     6     ar
7     8     7     1
8     9     8     1
9     10    8     1
10    11    10    1
11    12    11    ar
12    13    12    1
13    14    12    ar
14    15    14    1
15    16    14    ar
16    17    16    1
17    18    16    ar
18    19    11    ar
19    19    18    ar
20    20    19    1
21    21    1     ar
22    21    7     ar
23    21    20    1
24    22    6     1
25    23    22    1
26    24    22    1
27    25    22    1
28    26    10    2
29    27    20    1
30    28    27    1
31    29    27    1
32    30    29    1
33    31    29    1
34    32    27    1
35    32    29    1
36    33    32    1
37    34    32    1
@<TRIPOS>SUBSTRUCTURE
1   LIG    1    
 
########## Name        : 1VRT.lig
########## Description : AM1BCC_CHARGES =  -0.0002 ORIGINAL_CHARGES =  -0.0000

@<TRIPOS>MOLECULE
1VRT.lig
34    37    1     0     0    
SMALL
USER_CHARGES
@<TRIPOS>ATOM
1     N1       4.0540  -36.9310   22.2210 N.ar    1  LIG  -0.6650  -0.6200 
2     C1       4.9660  -36.2380   22.9390 C.ar    1  LIG   0.3947   0.1600 
3     H1       6.0082  -36.2811   22.6707 H       1  LIG   0.0281   0.1500 
4     C2       4.6240  -35.4500   24.0360 C.ar    1  LIG  -0.2334  -0.1500 
5     H2       5.3884  -34.9151   24.5740 H       1  LIG   0.1480   0.1500 
6     C3       3.3050  -35.3690   24.4150 C.ar    1  LIG  -0.0698  -0.1435 
7     C4       2.3460  -36.0770   23.6860 C.ar    1  LIG  -0.0398   0.1170 
8     N2       0.9890  -36.0280   24.1030 N.am    1  LIG  -0.4596  -0.5470 
9     H3       0.7643  -35.9928   25.0860 H       1  LIG   0.3311   0.3700 
10    C5      -0.1450  -36.0180   23.4080 C.2     1  LIG   0.7361   0.5438 
11    C6      -0.1190  -36.0770   21.8860 C.ar    1  LIG  -0.2550   0.0862 
12    C7      -1.1230  -35.3990   21.1890 C.ar    1  LIG  -0.0321  -0.1500 
13    H4      -1.7552  -34.6955   21.7041 H       1  LIG   0.1623   0.1500 
14    C8      -1.2960  -35.6300   19.8690 C.ar    1  LIG  -0.2723  -0.1500 
15    H5      -2.0662  -35.1073   19.3273 H       1  LIG   0.1522   0.1500 
16    C9      -0.4670  -36.5450   19.2400 C.ar    1  LIG   0.4373   0.1600 
17    H6      -0.5947  -36.7554   18.1915 H       1  LIG   0.0280   0.1500 
18    N3       0.5220  -37.2120   19.8740 N.ar    1  LIG  -0.6893  -0.6200 
19    C10      0.7040  -36.9790   21.1800 C.ar    1  LIG   0.6480   0.4100 
20    N4       1.7670  -37.6730   21.8260 N.pl3   1  LIG  -0.6924  -0.3690 
21    C11      2.7540  -36.8570   22.5840 C.ar    1  LIG   0.5805   0.4100 
22    C12      2.9040  -34.5090   25.6010 C.3     1  LIG  -0.0620   0.1435 
23    H7       2.2235  -33.7630   25.2820 H       1  LIG   0.0570   0.0000 
24    H8       2.4436  -35.1154   26.3371 H       1  LIG   0.0495   0.0000 
25    H9       3.7654  -34.0491   26.0108 H       1  LIG   0.0519   0.0000 
26    O1      -1.2400  -35.9060   23.9770 O.2     1  LIG  -0.6361  -0.5700 
27    C13      2.3440  -38.7570   21.0360 C.3     1  LIG   0.1354   0.0690 
28    H10      3.1238  -38.3754   20.4296 H       1  LIG   0.0981   0.1000 
29    C14      2.9380  -39.8900   21.8010 C.3     1  LIG  -0.1181  -0.2000 
30    H11      3.8890  -40.1268   21.3997 H       1  LIG   0.0732   0.1000 
31    H12      3.0430  -39.6129   22.8177 H       1  LIG   0.0789   0.1000 
32    C15      1.6390  -40.0610   21.0880 C.3     1  LIG  -0.1196  -0.2000 
33    H13      0.6832  -39.9283   21.5242 H       1  LIG   0.0807   0.1000 
34    H14      1.5292  -40.4423   20.1061 H       1  LIG   0.0733   0.1000 
@<TRIPOS>BOND
1     2     1     ar
2     3     2     1
3     4     2     ar
4     5     4     1
5     6     4     ar
6     7     6     ar
7     8     7     1
8     9     8     1
9     10    8     1
10    11    10    1
11    12    11    ar
12    13    12    1
13    14    12    ar
14    15    14    1
15    16    14    ar
16    17    16    1
17    18    16    ar
18    19    11    ar
19    19    18    ar
20    20    19    1
21    21    1     ar
22    21    7     ar
23    21    20    1
24    22    6     1
25    23    22    1
26    24    22    1
27    25    22    1
28    26    10    2
29    27    20    1
30    28    27    1
31    29    27    1
32    30    29    1
33    31    29    1
34    32    27    1
35    32    29    1
36    33    32    1
37    34    32    1
@<TRIPOS>SUBSTRUCTURE
1   LIG    1    
 
########## Name        : 1VRT.lig
########## Description : AM1BCC_CHARGES =  -0.0002 ORIGINAL_CHARGES =  -0.0000

@<TRIPOS>MOLECULE
1VRT.lig
34    37    1     0     0    
SMALL
USER_CHARGES
@<TRIPOS>ATOM
1     N1       4.0540  -36.9310   22.2210 N.ar    1  LIG  -0.6650  -0.6200 
2     C1       4.9660  -36.2380   22.9390 C.ar    1  LIG   0.3947   0.1600 
3     H1       6.0082  -36.2811   22.6707 H       1  LIG   0.0281   0.1500 
4     C2       4.6240  -35.4500   24.0360 C.ar    1  LIG  -0.2334  -0.1500 
5     H2       5.3884  -34.9151   24.5740 H       1  LIG   0.1480   0.1500 
6     C3       3.3050  -35.3690   24.4150 C.ar    1  LIG  -0.0698  -0.1435 
7     C4       2.3460  -36.0770   23.6860 C.ar    1  LIG  -0.0398   0.1170 
8     N2       0.9890  -36.0280   24.1030 N.am    1  LIG  -0.4596  -0.5470 
9     H3       0.7643  -35.9928   25.0860 H       1  LIG   0.3311   0.3700 
10    C5      -0.1450  -36.0180   23.4080 C.2     1  LIG   0.7361   0.5438 
11    C6      -0.1190  -36.0770   21.8860 C.ar    1  LIG  -0.2550   0.0862 
12    C7      -1.1230  -35.3990   21.1890 C.ar    1  LIG  -0.0321  -0.1500 
13    H4      -1.7552  -34.6955   21.7041 H       1  LIG   0.1623   0.1500 
14    C8      -1.2960  -35.6300   19.8690 C.ar    1  LIG  -0.2723  -0.1500 
15    H5      -2.0662  -35.1073   19.3273 H       1  LIG   0.1522   0.1500 
16    C9      -0.4670  -36.5450   19.2400 C.ar    1  LIG   0.4373   0.1600 
17    H6      -0.5947  -36.7554   18.1915 H       1  LIG   0.0280   0.1500 
18    N3       0.5220  -37.2120   19.8740 N.ar    1  LIG  -0.6893  -0.6200 
19    C10      0.7040  -36.9790   21.1800 C.ar    1  LIG   0.6480   0.4100 
20    N4       1.7670  -37.6730   21.8260 N.pl3   1  LIG  -0.6924  -0.3690 
21    C11      2.7540  -36.8570   22.5840 C.ar    1  LIG   0.5805   0.4100 
22    C12      2.9040  -34.5090   25.6010 C.3     1  LIG  -0.0620   0.1435 
23    H7       2.2235  -33.7630   25.2820 H       1  LIG   0.0570   0.0000 
24    H8       2.4436  -35.1154   26.3371 H       1  LIG   0.0495   0.0000 
25    H9       3.7654  -34.0491   26.0108 H       1  LIG   0.0519   0.0000 
26    O1      -1.2400  -35.9060   23.9770 O.2     1  LIG  -0.6361  -0.5700 
27    C13      2.3440  -38.7570   21.0360 C.3     1  LIG   0.1354   0.0690 
28    H10      3.1238  -38.3754   20.4296 H       1  LIG   0.0981   0.1000 
29    C14      2.9380  -39.8900   21.8010 C.3     1  LIG  -0.1181  -0.2000 
30    H11      3.8890  -40.1268   21.3997 H       1  LIG   0.0732   0.1000 
31    H12      3.0430  -39.6129   22.8177 H       1  LIG   0.0789   0.1000 
32    C15      1.6390  -40.0610   21.0880 C.3     1  LIG  -0.1196  -0.2000 
33    H13      0.6832  -39.9283   21.5242 H       1  LIG   0.0807   0.1000 
34    H14      1.5292  -40.4423   20.1061 H       1  LIG   0.0733   0.1000 
@<TRIPOS>BOND
1     2     1     ar
2     3     2     1
3     4     2     ar
4     5     4     1
5     6     4     ar
6     7     6     ar
7     8     7     1
8     9     8     1
9     10    8     1
10    11    10    1
11    12    11    ar
12    13    12    1
13    14    12    ar
14    15    14    1
15    16    14    ar
16    17    16    1
17    18    16    ar
18    19    11    ar
19    19    18    ar
20    20    19    1
21    21    1     ar
22    21    7     ar
23    21    20    1
24    22    6     1
25    23    22    1
26    24    22    1
27    25    22    1
28    26    10    2
29    27    20    1
30    28    27    1
31    29    27    1
32    30    29    1
33    31    29    1
34    32    27    1
35    32    29    1
36    33    32    1
37    34    32    1
@<TRIPOS>SUBSTRUCTURE
1   LIG    1    
 
########## Name        : 1VRT.lig
########## Description : AM1BCC_CHARGES =  -0.0002 ORIGINAL_CHARGES =  -0.0000

@<TRIPOS>MOLECULE
1VRT.lig
34    37    1     0     0    
SMALL
USER_CHARGES
@<TRIPOS>ATOM
1     N1       4.0540  -36.9310   22.2210 N.ar    1  LIG  -0.6650  -0.6200 
2     C1       4.9660  -36.2380   22.9390 C.ar    1  LIG   0.3947   0.1600 
3     H1       6.0082  -36.2811   22.6707 H       1  LIG   0.0281   0.1500 
4     C2       4.6240  -35.4500   24.0360 C.ar    1  LIG  -0.2334  -0.1500 
5     H2       5.3884  -34.9151   24.5740 H       1  LIG   0.1480   0.1500 
6     C3       3.3050  -35.3690   24.4150 C.ar    1  LIG  -0.0698  -0.1435 
7     C4       2.3460  -36.0770   23.6860 C.ar    1  LIG  -0.0398   0.1170 
8     N2       0.9890  -36.0280   24.1030 N.am    1  LIG  -0.4596  -0.5470 
9     H3       0.7643  -35.9928   25.0860 H       1  LIG   0.3311   0.3700 
10    C5      -0.1450  -36.0180   23.4080 C.2     1  LIG   0.7361   0.5438 
11    C6      -0.1190  -36.0770   21.8860 C.ar    1  LIG  -0.2550   0.0862 
12    C7      -1.1230  -35.3990   21.1890 C.ar    1  LIG  -0.0321  -0.1500 
13    H4      -1.7552  -34.6955   21.7041 H       1  LIG   0.1623   0.1500 
14    C8      -1.2960  -35.6300   19.8690 C.ar    1  LIG  -0.2723  -0.1500 
15    H5      -2.0662  -35.1073   19.3273 H       1  LIG   0.1522   0.1500 
16    C9      -0.4670  -36.5450   19.2400 C.ar    1  LIG   0.4373   0.1600 
17    H6      -0.5947  -36.7554   18.1915 H       1  LIG   0.0280   0.1500 
18    N3       0.5220  -37.2120   19.8740 N.ar    1  LIG  -0.6893  -0.6200 
19    C10      0.7040  -36.9790   21.1800 C.ar    1  LIG   0.6480   0.4100 
20    N4       1.7670  -37.6730   21.8260 N.pl3   1  LIG  -0.6924  -0.3690 
21    C11      2.7540  -36.8570   22.5840 C.ar    1  LIG   0.5805   0.4100 
22    C12      2.9040  -34.5090   25.6010 C.3     1  LIG  -0.0620   0.1435 
23    H7       2.2235  -33.7630   25.2820 H       1  LIG   0.0570   0.0000 
24    H8       2.4436  -35.1154   26.3371 H       1  LIG   0.0495   0.0000 
25    H9       3.7654  -34.0491   26.0108 H       1  LIG   0.0519   0.0000 
26    O1      -1.2400  -35.9060   23.9770 O.2     1  LIG  -0.6361  -0.5700 
27    C13      2.3440  -38.7570   21.0360 C.3     1  LIG   0.1354   0.0690 
28    H10      3.1238  -38.3754   20.4296 H       1  LIG   0.0981   0.1000 
29    C14      2.9380  -39.8900   21.8010 C.3     1  LIG  -0.1181  -0.2000 
30    H11      3.8890  -40.1268   21.3997 H       1  LIG   0.0732   0.1000 
31    H12      3.0430  -39.6129   22.8177 H       1  LIG   0.0789   0.1000 
32    C15      1.6390  -40.0610   21.0880 C.3     1  LIG  -0.1196  -0.2000 
33    H13      0.6832  -39.9283   21.5242 H       1  LIG   0.0807   0.1000 
34    H14      1.5292  -40.4423   20.1061 H       1  LIG   0.0733   0.1000 
@<TRIPOS>BOND
1     2     1     ar
2     3     2     1
3     4     2     ar
4     5     4     1
5     6     4     ar
6     7     6     ar
7     8     7     1
8     9     8     1
9     10    8     1
10    11    10    1
11    12    11    ar
12    13    12    1
13    14    12    ar
14    15    14    1
15    16    14    ar
16    17    16    1
17    18    16    ar
18    19    11    ar
19    19    18    ar
20    20    19    1
21    21    1     ar
22    21    7     ar
23    21    20    1
24    22    6     1
25    23    22    1
26    24    22    1
27    25    22    1
28    26    10    2
29    27    20    1
30    28    27    1
31    29    27    1
32    30    29    1
33    31    29    1
34    32    27    1
35    32    29    1
36    33    32    1
37    34    32    1
@<TRIPOS>SUBSTRUCTURE
1   LIG    1    
 
########## Name        : 1VRT.lig
########## Description : AM1BCC_CHARGES =  -0.0002 ORIGINAL_CHARGES =  -0.0000

@<TRIPOS>MOLECULE
1VRT.lig
34    37    1     0     0    
SMALL
USER_CHARGES
@<TRIPOS>ATOM
1     N1       4.0540  -36.9310   22.2210 N.ar    1  LIG  -0.6650  -0.6200 
2     C1       4.9660  -36.2380   22.9390 C.ar    1  LIG   0.3947   0.1600 
3     H1       6.0082  -36.2811   22.6707 H       1  LIG   0.0281   0.1500 
4     C2       4.6240  -35.4500   24.0360 C.ar    1  LIG  -0.2334  -0.1500 
5     H2       5.3884  -34.9151   24.5740 H       1  LIG   0.1480   0.1500 
6     C3       3.3050  -35.3690   24.4150 C.ar    1  LIG  -0.0698  -0.1435 
7     C4       2.3460  -36.0770   23.6860 C.ar    1  LIG  -0.0398   0.1170 
8     N2       0.9890  -36.0280   24.1030 N.am    1  LIG  -0.4596  -0.5470 
9     H3       0.7643  -35.9928   25.0860 H       1  LIG   0.3311   0.3700 
10    C5      -0.1450  -36.0180   23.4080 C.2     1  LIG   0.7361   0.5438 
11    C6      -0.1190  -36.0770   21.8860 C.ar    1  LIG  -0.2550   0.0862 
12    C7      -1.1230  -35.3990   21.1890 C.ar    1  LIG  -0.0321  -0.1500 
13    H4      -1.7552  -34.6955   21.7041 H       1  LIG   0.1623   0.1500 
14    C8      -1.2960  -35.6300   19.8690 C.ar    1  LIG  -0.2723  -0.1500 
15    H5      -2.0662  -35.1073   19.3273 H       1  LIG   0.1522   0.1500 
16    C9      -0.4670  -36.5450   19.2400 C.ar    1  LIG   0.4373   0.1600 
17    H6      -0.5947  -36.7554   18.1915 H       1  LIG   0.0280   0.1500 
18    N3       0.5220  -37.2120   19.8740 N.ar    1  LIG  -0.6893  -0.6200 
19    C10      0.7040  -36.9790   21.1800 C.ar    1  LIG   0.6480   0.4100 
20    N4       1.7670  -37.6730   21.8260 N.pl3   1  LIG  -0.6924  -0.3690 
21    C11      2.7540  -36.8570   22.5840 C.ar    1  LIG   0.5805   0.4100 
22    C12      2.9040  -34.5090   25.6010 C.3     1  LIG  -0.0620   0.1435 
23    H7       2.2235  -33.7630   25.2820 H       1  LIG   0.0570   0.0000 
24    H8       2.4436  -35.1154   26.3371 H       1  LIG   0.0495   0.0000 
25    H9       3.7654  -34.0491   26.0108 H       1  LIG   0.0519   0.0000 
26    O1      -1.2400  -35.9060   23.9770 O.2     1  LIG  -0.6361  -0.5700 
27    C13      2.3440  -38.7570   21.0360 C.3     1  LIG   0.1354   0.0690 
28    H10      3.1238  -38.3754   20.4296 H       1  LIG   0.0981   0.1000 
29    C14      2.9380  -39.8900   21.8010 C.3     1  LIG  -0.1181  -0.2000 
30    H11      3.8890  -40.1268   21.3997 H       1  LIG   0.0732   0.1000 
31    H12      3.0430  -39.6129   22.8177 H       1  LIG   0.0789   0.1000 
32    C15      1.6390  -40.0610   21.0880 C.3     1  LIG  -0.1196  -0.2000 
33    H13      0.6832  -39.9283   21.5242 H       1  LIG   0.0807   0.1000 
34    H14      1.5292  -40.4423   20.1061 H       1  LIG   0.0733   0.1000 
@<TRIPOS>BOND
1     2     1     ar
2     3     2     1
3     4     2     ar
4     5     4     1
5     6     4     ar
6     7     6     ar
7     8     7     1
8     9     8     1
9     10    8     1
10    11    10    1
11    12    11    ar
12    13    12    1
13    14    12    ar
14    15    14    1
15    16    14    ar
16    17    16    1
17    18    16    ar
18    19    11    ar
19    19    18    ar
20    20    19    1
21    21    1     ar
22    21    7     ar
23    21    20    1
24    22    6     1
25    23    22    1
26    24    22    1
27    25    22    1
28    26    10    2
29    27    20    1
30    28    27    1
31    29    27    1
32    30    29    1
33    31    29    1
34    32    27    1
35    32    29    1
36    33    32    1
37    34    32    1
@<TRIPOS>SUBSTRUCTURE
1   LIG    1    
 
########## Name        : 1VRT.lig
########## Description : AM1BCC_CHARGES =  -0.0002 ORIGINAL_CHARGES =  -0.0000

@<TRIPOS>MOLECULE
1VRT.lig
34    37    1     0     0    
SMALL
USER_CHARGES
@<TRIPOS>ATOM
1     N1       4.0540  -36.9310   22.2210 N.ar    1  LIG  -0.6650  -0.6200 
2     C1       4.9660  -36.2380   22.9390 C.ar    1  LIG   0.3947   0.1600 
3     H1       6.0082  -36.2811   22.6707 H       1  LIG   0.0281   0.1500 
4     C2       4.6240  -35.4500   24.0360 C.ar    1  LIG  -0.2334  -0.1500 
5     H2       5.3884  -34.9151   24.5740 H       1  LIG   0.1480   0.1500 
6     C3       3.3050  -35.3690   24.4150 C.ar    1  LIG  -0.0698  -0.1435 
7     C4       2.3460  -36.0770   23.6860 C.ar    1  LIG  -0.0398   0.1170 
8     N2       0.9890  -36.0280   24.1030 N.am    1  LIG  -0.4596  -0.5470 
9     H3       0.7643  -35.9928   25.0860 H       1  LIG   0.3311   0.3700 
10    C5      -0.1450  -36.0180   23.4080 C.2     1  LIG   0.7361   0.5438 
11    C6      -0.1190  -36.0770   21.8860 C.ar    1  LIG  -0.2550   0.0862 
12    C7      -1.1230  -35.3990   21.1890 C.ar    1  LIG  -0.0321  -0.1500 
13    H4      -1.7552  -34.6955   21.7041 H       1  LIG   0.1623   0.1500 
14    C8      -1.2960  -35.6300   19.8690 C.ar    1  LIG  -0.2723  -0.1500 
15    H5      -2.0662  -35.1073   19.3273 H       1  LIG   0.1522   0.1500 
16    C9      -0.4670  -36.5450   19.2400 C.ar    1  LIG   0.4373   0.1600 
17    H6      -0.5947  -36.7554   18.1915 H       1  LIG   0.0280   0.1500 
18    N3       0.5220  -37.2120   19.8740 N.ar    1  LIG  -0.6893  -0.6200 
19    C10      0.7040  -36.9790   21.1800 C.ar    1  LIG   0.6480   0.4100 
20    N4       1.7670  -37.6730   21.8260 N.pl3   1  LIG  -0.6924  -0.3690 
21    C11      2.7540  -36.8570   22.5840 C.ar    1  LIG   0.5805   0.4100 
22    C12      2.9040  -34.5090   25.6010 C.3     1  LIG  -0.0620   0.1435 
23    H7       2.2235  -33.7630   25.2820 H       1  LIG   0.0570   0.0000 
24    H8       2.4436  -35.1154   26.3371 H       1  LIG   0.0495   0.0000 
25    H9       3.7654  -34.0491   26.0108 H       1  LIG   0.0519   0.0000 
26    O1      -1.2400  -35.9060   23.9770 O.2     1  LIG  -0.6361  -0.5700 
27    C13      2.3440  -38.7570   21.0360 C.3     1  LIG   0.1354   0.0690 
28    H10      3.1238  -38.3754   20.4296 H       1  LIG   0.0981   0.1000 
29    C14      2.9380  -39.8900   21.8010 C.3     1  LIG  -0.1181  -0.2000 
30    H11      3.8890  -40.1268   21.3997 H       1  LIG   0.0732   0.1000 
31    H12      3.0430  -39.6129   22.8177 H       1  LIG   0.0789   0.1000 
32    C15      1.6390  -40.0610   21.0880 C.3     1  LIG  -0.1196  -0.2000 
33    H13      0.6832  -39.9283   21.5242 H       1  LIG   0.0807   0.1000 
34    H14      1.5292  -40.4423   20.1061 H       1  LIG   0.0733   0.1000 
@<TRIPOS>BOND
1     2     1     ar
2     3     2     1
3     4     2     ar
4     5     4     1
5     6     4     ar
6     7     6     ar
7     8     7     1
8     9     8     1
9     10    8     1
10    11    10    1
11    12    11    ar
12    13    12    1
13    14    12    ar
14    15    14    1
15    16    14    ar
16    17    16    1
17    18    16    ar
18    19    11    ar
19    19    18    ar
20    20    19    1
21    21    1     ar
22    21    7     ar
23    21    20    1
24    22    6     1
25    23    22    1
26    24    22    1
27    25    22    1
28    26    10    2
29    27    20    1
30    28    27    1
31    29    27    1
32    30    29    1
33    31    29    1
34    32    27    1
35    32    29    1
36    33    32    1
37    34    32    1
@<TRIPOS>SUBSTRUCTURE
1   LIG    1    
 
########## Name        : 1VRT.lig
########## Description : AM1BCC_CHARGES =  -0.0002 ORIGINAL_CHARGES =  -0.0000

@<TRIPOS>MOLECULE
1VRT.lig
34    37    1     0     0    
SMALL
USER_CHARGES
@<TRIPOS>ATOM
1     N1       4.0540  -36.9310   22.2210 N.ar    1  LIG  -0.6650  -0.6200 
2     C1       4.9660  -36.2380   22.9390 C.ar    1  LIG   0.3947   0.1600 
3     H1       6.0082  -36.2811   22.6707 H       1  LIG   0.0281   0.1500 
4     C2       4.6240  -35.4500   24.0360 C.ar    1  LIG  -0.2334  -0.1500 
5     H2       5.3884  -34.9151   24.5740 H       1  LIG   0.1480   0.1500 
6     C3       3.3050  -35.3690   24.4150 C.ar    1  LIG  -0.0698  -0.1435 
7     C4       2.3460  -36.0770   23.6860 C.ar    1  LIG  -0.0398   0.1170 
8     N2       0.9890  -36.0280   24.1030 N.am    1  LIG  -0.4596  -0.5470 
9     H3       0.7643  -35.9928   25.0860 H       1  LIG   0.3311   0.3700 
10    C5      -0.1450  -36.0180   23.4080 C.2     1  LIG   0.7361   0.5438 
11    C6      -0.1190  -36.0770   21.8860 C.ar    1  LIG  -0.2550   0.0862 
12    C7      -1.1230  -35.3990   21.1890 C.ar    1  LIG  -0.0321  -0.1500 
13    H4      -1.7552  -34.6955   21.7041 H       1  LIG   0.1623   0.1500 
14    C8      -1.2960  -35.6300   19.8690 C.ar    1  LIG  -0.2723  -0.1500 
15    H5      -2.0662  -35.1073   19.3273 H       1  LIG   0.1522   0.1500 
16    C9      -0.4670  -36.5450   19.2400 C.ar    1  LIG   0.4373   0.1600 
17    H6      -0.5947  -36.7554   18.1915 H       1  LIG   0.0280   0.1500 
18    N3       0.5220  -37.2120   19.8740 N.ar    1  LIG  -0.6893  -0.6200 
19    C10      0.7040  -36.9790   21.1800 C.ar    1  LIG   0.6480   0.4100 
20    N4       1.7670  -37.6730   21.8260 N.pl3   1  LIG  -0.6924  -0.3690 
21    C11      2.7540  -36.8570   22.5840 C.ar    1  LIG   0.5805   0.4100 
22    C12      2.9040  -34.5090   25.6010 C.3     1  LIG  -0.0620   0.1435 
23    H7       2.2235  -33.7630   25.2820 H       1  LIG   0.0570   0.0000 
24    H8       2.4436  -35.1154   26.3371 H       1  LIG   0.0495   0.0000 
25    H9       3.7654  -34.0491   26.0108 H       1  LIG   0.0519   0.0000 
26    O1      -1.2400  -35.9060   23.9770 O.2     1  LIG  -0.6361  -0.5700 
27    C13      2.3440  -38.7570   21.0360 C.3     1  LIG   0.1354   0.0690 
28    H10      3.1238  -38.3754   20.4296 H       1  LIG   0.0981   0.1000 
29    C14      2.9380  -39.8900   21.8010 C.3     1  LIG  -0.1181  -0.2000 
30    H11      3.8890  -40.1268   21.3997 H       1  LIG   0.0732   0.1000 
31    H12      3.0430  -39.6129   22.8177 H       1  LIG   0.0789   0.1000 
32    C15      1.6390  -40.0610   21.0880 C.3     1  LIG  -0.1196  -0.2000 
33    H13      0.6832  -39.9283   21.5242 H       1  LIG   0.0807   0.1000 
34    H14      1.5292  -40.4423   20.1061 H       1  LIG   0.0733   0.1000 
@<TRIPOS>BOND
1     2     1     ar
2     3     2     1
3     4     2     ar
4     5     4     1
5     6     4     ar
6     7     6     ar
7     8     7     1
8     9     8     1
9     10    8     1
10    11    10    1
11    12    11    ar
12    13    12    1
13    14    12    ar
14    15    14    1
15    16    14    ar
16    17    16    1
17    18    16    ar
18    19    11    ar
19    19    18    ar
20    20    19    1
21    21    1     ar
22    21    7     ar
23    21    20    1
24    22    6     1
25    23    22    1
26    24    22    1
27    25    22    1
28    26    10    2
29    27    20    1
30    28    27    1
31    29    27    1
32    30    29    1
33    31    29    1
34    32    27    1
35    32    29    1
36    33    32    1
37    34    32    1
@<TRIPOS>SUBSTRUCTURE
1   LIG    1    
 
########## Name        : 1VRT.lig
########## Description : AM1BCC_CHARGES =  -0.0002 ORIGINAL_CHARGES =  -0.0000

@<TRIPOS>MOLECULE
1VRT.lig
34    37    1     0     0    
SMALL
USER_CHARGES
@<TRIPOS>ATOM
1     N1       4.0540  -36.9310   22.2210 N.ar    1  LIG  -0.6650  -0.6200 
2     C1       4.9660  -36.2380   22.9390 C.ar    1  LIG   0.3947   0.1600 
3     H1       6.0082  -36.2811   22.6707 H       1  LIG   0.0281   0.1500 
4     C2       4.6240  -35.4500   24.0360 C.ar    1  LIG  -0.2334  -0.1500 
5     H2       5.3884  -34.9151   24.5740 H       1  LIG   0.1480   0.1500 
6     C3       3.3050  -35.3690   24.4150 C.ar    1  LIG  -0.0698  -0.1435 
7     C4       2.3460  -36.0770   23.6860 C.ar    1  LIG  -0.0398   0.1170 
8     N2       0.9890  -36.0280   24.1030 N.am    1  LIG  -0.4596  -0.5470 
9     H3       0.7643  -35.9928   25.0860 H       1  LIG   0.3311   0.3700 
10    C5      -0.1450  -36.0180   23.4080 C.2     1  LIG   0.7361   0.5438 
11    C6      -0.1190  -36.0770   21.8860 C.ar    1  LIG  -0.2550   0.0862 
12    C7      -1.1230  -35.3990   21.1890 C.ar    1  LIG  -0.0321  -0.1500 
13    H4      -1.7552  -34.6955   21.7041 H       1  LIG   0.1623   0.1500 
14    C8      -1.2960  -35.6300   19.8690 C.ar    1  LIG  -0.2723  -0.1500 
15    H5      -2.0662  -35.1073   19.3273 H       1  LIG   0.1522   0.1500 
16    C9      -0.4670  -36.5450   19.2400 C.ar    1  LIG   0.4373   0.1600 
17    H6      -0.5947  -36.7554   18.1915 H       1  LIG   0.0280   0.1500 
18    N3       0.5220  -37.2120   19.8740 N.ar    1  LIG  -0.6893  -0.6200 
19    C10      0.7040  -36.9790   21.1800 C.ar    1  LIG   0.6480   0.4100 
20    N4       1.7670  -37.6730   21.8260 N.pl3   1  LIG  -0.6924  -0.3690 
21    C11      2.7540  -36.8570   22.5840 C.ar    1  LIG   0.5805   0.4100 
22    C12      2.9040  -34.5090   25.6010 C.3     1  LIG  -0.0620   0.1435 
23    H7       2.2235  -33.7630   25.2820 H       1  LIG   0.0570   0.0000 
24    H8       2.4436  -35.1154   26.3371 H       1  LIG   0.0495   0.0000 
25    H9       3.7654  -34.0491   26.0108 H       1  LIG   0.0519   0.0000 
26    O1      -1.2400  -35.9060   23.9770 O.2     1  LIG  -0.6361  -0.5700 
27    C13      2.3440  -38.7570   21.0360 C.3     1  LIG   0.1354   0.0690 
28    H10      3.1238  -38.3754   20.4296 H       1  LIG   0.0981   0.1000 
29    C14      2.9380  -39.8900   21.8010 C.3     1  LIG  -0.1181  -0.2000 
30    H11      3.8890  -40.1268   21.3997 H       1  LIG   0.0732   0.1000 
31    H12      3.0430  -39.6129   22.8177 H       1  LIG   0.0789   0.1000 
32    C15      1.6390  -40.0610   21.0880 C.3     1  LIG  -0.1196  -0.2000 
33    H13      0.6832  -39.9283   21.5242 H       1  LIG   0.0807   0.1000 
34    H14      1.5292  -40.4423   20.1061 H       1  LIG   0.0733   0.1000 
@<TRIPOS>BOND
1     2     1     ar
2     3     2     1
3     4     2     ar
4     5     4     1
5     6     4     ar
6     7     6     ar
7     8     7     1
8     9     8     1
9     10    8     1
10    11    10    1
11    12    11    ar
12    13    12    1
13    14    12    ar
14    15    14    1
15    16    14    ar
16    17    16    1
17    18    16    ar
18    19    11    ar
19    19    18    ar
20    20    19    1
21    21    1     ar
22    21    7     ar
23    21    20    1
24    22    6     1
25    23    22    1
26    24    22    1
27    25    22    1
28    26    10    2
29    27    20    1
30    28    27    1
31    29    27    1
32    30    29    1
33    31    29    1
34    32    27    1
35    32    29    1
36    33    32    1
37    34    32    1
@<TRIPOS>SUBSTRUCTURE
1   LIG    1    
 
########## Name        : 1VRT.lig
########## Description : AM1BCC_CHARGES =  -0.0002 ORIGINAL_CHARGES =  -0.0000

@<TRIPOS>MOLECULE
1VRT.lig
34    37    1     0     0    
SMALL
USER_CHARGES
@<TRIPOS>ATOM
1     N1       4.0540  -36.9310   22.2210 N.ar    1  LIG  -0.6650  -0.6200 
2     C1       4.9660  -36.2380   22.9390 C.ar    1  LIG   0.3947   0.1600 
3     H1       6.0082  -36.2811   22.6707 H       1  LIG   0.0281   0.1500 
4     C2       4.6240  -35.4500   24.0360 C.ar    1  LIG  -0.2334  -0.1500 
5     H2       5.3884  -34.9151   24.5740 H       1  LIG   0.1480   0.1500 
6     C3       3.3050  -35.3690   24.4150 C.ar    1  LIG  -0.0698  -0.1435 
7     C4       2.3460  -36.0770   23.6860 C.ar    1  LIG  -0.0398   0.1170 
8     N2       0.9890  -36.0280   24.1030 N.am    1  LIG  -0.4596  -0.5470 
9     H3       0.7643  -35.9928   25.0860 H       1  LIG   0.3311   0.3700 
10    C5      -0.1450  -36.0180   23.4080 C.2     1  LIG   0.7361   0.5438 
11    C6      -0.1190  -36.0770   21.8860 C.ar    1  LIG  -0.2550   0.0862 
12    C7      -1.1230  -35.3990   21.1890 C.ar    1  LIG  -0.0321  -0.1500 
13    H4      -1.7552  -34.6955   21.7041 H       1  LIG   0.1623   0.1500 
14    C8      -1.2960  -35.6300   19.8690 C.ar    1  LIG  -0.2723  -0.1500 
15    H5      -2.0662  -35.1073   19.3273 H       1  LIG   0.1522   0.1500 
16    C9      -0.4670  -36.5450   19.2400 C.ar    1  LIG   0.4373   0.1600 
17    H6      -0.5947  -36.7554   18.1915 H       1  LIG   0.0280   0.1500 
18    N3       0.5220  -37.2120   19.8740 N.ar    1  LIG  -0.6893  -0.6200 
19    C10      0.7040  -36.9790   21.1800 C.ar    1  LIG   0.6480   0.4100 
20    N4       1.7670  -37.6730   21.8260 N.pl3   1  LIG  -0.6924  -0.3690 
21    C11      2.7540  -36.8570   22.5840 C.ar    1  LIG   0.5805   0.4100 
22    C12      2.9040  -34.5090   25.6010 C.3     1  LIG  -0.0620   0.1435 
23    H7       2.2235  -33.7630   25.2820 H       1  LIG   0.0570   0.0000 
24    H8       2.4436  -35.1154   26.3371 H       1  LIG   0.0495   0.0000 
25    H9       3.7654  -34.0491   26.0108 H       1  LIG   0.0519   0.0000 
26    O1      -1.2400  -35.9060   23.9770 O.2     1  LIG  -0.6361  -0.5700 
27    C13      2.3440  -38.7570   21.0360 C.3     1  LIG   0.1354   0.0690 
28    H10      3.1238  -38.3754   20.4296 H       1  LIG   0.0981   0.1000 
29    C14      2.9380  -39.8900   21.8010 C.3     1  LIG  -0.1181  -0.2000 
30    H11      3.8890  -40.1268   21.3997 H       1  LIG   0.0732   0.1000 
31    H12      3.0430  -39.6129   22.8177 H       1  LIG   0.0789   0.1000 
32    C15      1.6390  -40.0610   21.0880 C.3     1  LIG  -0.1196  -0.2000 
33    H13      0.6832  -39.9283   21.5242 H       1  LIG   0.0807   0.1000 
34    H14      1.5292  -40.4423   20.1061 H       1  LIG   0.0733   0.1000 
@<TRIPOS>BOND
1     2     1     ar
2     3     2     1
3     4     2     ar
4     5     4     1
5     6     4     ar
6     7     6     ar
7     8     7     1
8     9     8     1
9     10    8     1
10    11    10    1
11    12    11    ar
12    13    12    1
13    14    12    ar
14    15    14    1
15    16    14    ar
16    17    16    1
17    18    16    ar
18    19    11    ar
19    19    18    ar
20    20    19    1
21    21    1     ar
22    21    7     ar
23    21    20    1
24    22    6     1
25    23    22    1
26    24    22    1
27    25    22    1
28    26    10    2
29    27    20    1
30    28    27    1
31    29    27    1
32    30    29    1
33    31    29    1
34    32    27    1
35    32    29    1
36    33    32    1
37    34    32    1
@<TRIPOS>SUBSTRUCTURE
1   LIG    1    
 
########## Name        : 1VRT.lig
########## Description : AM1BCC_CHARGES =  -0.0002 ORIGINAL_CHARGES =  -0.0000

@<TRIPOS>MOLECULE
1VRT.lig
34    37    1     0     0    
SMALL
USER_CHARGES
@<TRIPOS>ATOM
1     N1       4.0540  -36.9310   22.2210 N.ar    1  LIG  -0.6650  -0.6200 
2     C1       4.9660  -36.2380   22.9390 C.ar    1  LIG   0.3947   0.1600 
3     H1       6.0082  -36.2811   22.6707 H       1  LIG   0.0281   0.1500 
4     C2       4.6240  -35.4500   24.0360 C.ar    1  LIG  -0.2334  -0.1500 
5     H2       5.3884  -34.9151   24.5740 H       1  LIG   0.1480   0.1500 
6     C3       3.3050  -35.3690   24.4150 C.ar    1  LIG  -0.0698  -0.1435 
7     C4       2.3460  -36.0770   23.6860 C.ar    1  LIG  -0.0398   0.1170 
8     N2       0.9890  -36.0280   24.1030 N.am    1  LIG  -0.4596  -0.5470 
9     H3       0.7643  -35.9928   25.0860 H       1  LIG   0.3311   0.3700 
10    C5      -0.1450  -36.0180   23.4080 C.2     1  LIG   0.7361   0.5438 
11    C6      -0.1190  -36.0770   21.8860 C.ar    1  LIG  -0.2550   0.0862 
12    C7      -1.1230  -35.3990   21.1890 C.ar    1  LIG  -0.0321  -0.1500 
13    H4      -1.7552  -34.6955   21.7041 H       1  LIG   0.1623   0.1500 
14    C8      -1.2960  -35.6300   19.8690 C.ar    1  LIG  -0.2723  -0.1500 
15    H5      -2.0662  -35.1073   19.3273 H       1  LIG   0.1522   0.1500 
16    C9      -0.4670  -36.5450   19.2400 C.ar    1  LIG   0.4373   0.1600 
17    H6      -0.5947  -36.7554   18.1915 H       1  LIG   0.0280   0.1500 
18    N3       0.5220  -37.2120   19.8740 N.ar    1  LIG  -0.6893  -0.6200 
19    C10      0.7040  -36.9790   21.1800 C.ar    1  LIG   0.6480   0.4100 
20    N4       1.7670  -37.6730   21.8260 N.pl3   1  LIG  -0.6924  -0.3690 
21    C11      2.7540  -36.8570   22.5840 C.ar    1  LIG   0.5805   0.4100 
22    C12      2.9040  -34.5090   25.6010 C.3     1  LIG  -0.0620   0.1435 
23    H7       2.2235  -33.7630   25.2820 H       1  LIG   0.0570   0.0000 
24    H8       2.4436  -35.1154   26.3371 H       1  LIG   0.0495   0.0000 
25    H9       3.7654  -34.0491   26.0108 H       1  LIG   0.0519   0.0000 
26    O1      -1.2400  -35.9060   23.9770 O.2     1  LIG  -0.6361  -0.5700 
27    C13      2.3440  -38.7570   21.0360 C.3     1  LIG   0.1354   0.0690 
28    H10      3.1238  -38.3754   20.4296 H       1  LIG   0.0981   0.1000 
29    C14      2.9380  -39.8900   21.8010 C.3     1  LIG  -0.1181  -0.2000 
30    H11      3.8890  -40.1268   21.3997 H       1  LIG   0.0732   0.1000 
31    H12      3.0430  -39.6129   22.8177 H       1  LIG   0.0789   0.1000 
32    C15      1.6390  -40.0610   21.0880 C.3     1  LIG  -0.1196  -0.2000 
33    H13      0.6832  -39.9283   21.5242 H       1  LIG   0.0807   0.1000 
34    H14      1.5292  -40.4423   20.1061 H       1  LIG   0.0733   0.1000 
@<TRIPOS>BOND
1     2     1     ar
2     3     2     1
3     4     2     ar
4     5     4     1
5     6     4     ar
6     7     6     ar
7     8     7     1
8     9     8     1
9     10    8     1
10    11    10    1
11    12    11    ar
12    13    12    1
13    14    12    ar
14    15    14    1
15    16    14    ar
16    17    16    1
17    18    16    ar
18    19    11    ar
19    19    18    ar
20    20    19    1
21    21    1     ar
22    21    7     ar
23    21    20    1
24    22    6     1
25    23    22    1
26    24    22    1
27    25    22    1
28    26    10    2
29    27    20    1
30    28    27    1
31    29    27    1
32    30    29    1
33    31    29    1
34    32    27    1
35    32    29    1
36    33    32    1
37    34    32    1
@<TRIPOS>SUBSTRUCTURE
1   LIG    1    
 
########## Name        : 1VRT.lig
########## Description : AM1BCC_CHARGES =  -0.0002 ORIGINAL_CHARGES =  -0.0000

@<TRIPOS>MOLECULE
1VRT.lig
34    37    1     0     0    
SMALL
USER_CHARGES
@<TRIPOS>ATOM
1     N1       4.0540  -36.9310   22.2210 N.ar    1  LIG  -0.6650  -0.6200 
2     C1       4.9660  -36.2380   22.9390 C.ar    1  LIG   0.3947   0.1600 
3     H1       6.0082  -36.2811   22.6707 H       1  LIG   0.0281   0.1500 
4     C2       4.6240  -35.4500   24.0360 C.ar    1  LIG  -0.2334  -0.1500 
5     H2       5.3884  -34.9151   24.5740 H       1  LIG   0.1480   0.1500 
6     C3       3.3050  -35.3690   24.4150 C.ar    1  LIG  -0.0698  -0.1435 
7     C4       2.3460  -36.0770   23.6860 C.ar    1  LIG  -0.0398   0.1170 
8     N2       0.9890  -36.0280   24.1030 N.am    1  LIG  -0.4596  -0.5470 
9     H3       0.7643  -35.9928   25.0860 H       1  LIG   0.3311   0.3700 
10    C5      -0.1450  -36.0180   23.4080 C.2     1  LIG   0.7361   0.5438 
11    C6      -0.1190  -36.0770   21.8860 C.ar    1  LIG  -0.2550   0.0862 
12    C7      -1.1230  -35.3990   21.1890 C.ar    1  LIG  -0.0321  -0.1500 
13    H4      -1.7552  -34.6955   21.7041 H       1  LIG   0.1623   0.1500 
14    C8      -1.2960  -35.6300   19.8690 C.ar    1  LIG  -0.2723  -0.1500 
15    H5      -2.0662  -35.1073   19.3273 H       1  LIG   0.1522   0.1500 
16    C9      -0.4670  -36.5450   19.2400 C.ar    1  LIG   0.4373   0.1600 
17    H6      -0.5947  -36.7554   18.1915 H       1  LIG   0.0280   0.1500 
18    N3       0.5220  -37.2120   19.8740 N.ar    1  LIG  -0.6893  -0.6200 
19    C10      0.7040  -36.9790   21.1800 C.ar    1  LIG   0.6480   0.4100 
20    N4       1.7670  -37.6730   21.8260 N.pl3   1  LIG  -0.6924  -0.3690 
21    C11      2.7540  -36.8570   22.5840 C.ar    1  LIG   0.5805   0.4100 
22    C12      2.9040  -34.5090   25.6010 C.3     1  LIG  -0.0620   0.1435 
23    H7       2.2235  -33.7630   25.2820 H       1  LIG   0.0570   0.0000 
24    H8       2.4436  -35.1154   26.3371 H       1  LIG   0.0495   0.0000 
25    H9       3.7654  -34.0491   26.0108 H       1  LIG   0.0519   0.0000 
26    O1      -1.2400  -35.9060   23.9770 O.2     1  LIG  -0.6361  -0.5700 
27    C13      2.3440  -38.7570   21.0360 C.3     1  LIG   0.1354   0.0690 
28    H10      3.1238  -38.3754   20.4296 H       1  LIG   0.0981   0.1000 
29    C14      2.9380  -39.8900   21.8010 C.3     1  LIG  -0.1181  -0.2000 
30    H11      3.8890  -40.1268   21.3997 H       1  LIG   0.0732   0.1000 
31    H12      3.0430  -39.6129   22.8177 H       1  LIG   0.0789   0.1000 
32    C15      1.6390  -40.0610   21.0880 C.3     1  LIG  -0.1196  -0.2000 
33    H13      0.6832  -39.9283   21.5242 H       1  LIG   0.0807   0.1000 
34    H14      1.5292  -40.4423   20.1061 H       1  LIG   0.0733   0.1000 
@<TRIPOS>BOND
1     2     1     ar
2     3     2     1
3     4     2     ar
4     5     4     1
5     6     4     ar
6     7     6     ar
7     8     7     1
8     9     8     1
9     10    8     1
10    11    10    1
11    12    11    ar
12    13    12    1
13    14    12    ar
14    15    14    1
15    16    14    ar
16    17    16    1
17    18    16    ar
18    19    11    ar
19    19    18    ar
20    20    19    1
21    21    1     ar
22    21    7     ar
23    21    20    1
24    22    6     1
25    23    22    1
26    24    22    1
27    25    22    1
28    26    10    2
29    27    20    1
30    28    27    1
31    29    27    1
32    30    29    1
33    31    29    1
34    32    27    1
35    32    29    1
36    33    32    1
37    34    32    1
@<TRIPOS>SUBSTRUCTURE
1   LIG    1    
 
########## Name        : 1VRT.lig
########## Description : AM1BCC_CHARGES =  -0.0002 ORIGINAL_CHARGES =  -0.0000

@<TRIPOS>MOLECULE
1VRT.lig
34    37    1     0     0    
SMALL
USER_CHARGES
@<TRIPOS>ATOM
1     N1       4.0540  -36.9310   22.2210 N.ar    1  LIG  -0.6650  -0.6200 
2     C1       4.9660  -36.2380   22.9390 C.ar    1  LIG   0.3947   0.1600 
3     H1       6.0082  -36.2811   22.6707 H       1  LIG   0.0281   0.1500 
4     C2       4.6240  -35.4500   24.0360 C.ar    1  LIG  -0.2334  -0.1500 
5     H2       5.3884  -34.9151   24.5740 H       1  LIG   0.1480   0.1500 
6     C3       3.3050  -35.3690   24.4150 C.ar    1  LIG  -0.0698  -0.1435 
7     C4       2.3460  -36.0770   23.6860 C.ar    1  LIG  -0.0398   0.1170 
8     N2       0.9890  -36.0280   24.1030 N.am    1  LIG  -0.4596  -0.5470 
9     H3       0.7643  -35.9928   25.0860 H       1  LIG   0.3311   0.3700 
10    C5      -0.1450  -36.0180   23.4080 C.2     1  LIG   0.7361   0.5438 
11    C6      -0.1190  -36.0770   21.8860 C.ar    1  LIG  -0.2550   0.0862 
12    C7      -1.1230  -35.3990   21.1890 C.ar    1  LIG  -0.0321  -0.1500 
13    H4      -1.7552  -34.6955   21.7041 H       1  LIG   0.1623   0.1500 
14    C8      -1.2960  -35.6300   19.8690 C.ar    1  LIG  -0.2723  -0.1500 
15    H5      -2.0662  -35.1073   19.3273 H       1  LIG   0.1522   0.1500 
16    C9      -0.4670  -36.5450   19.2400 C.ar    1  LIG   0.4373   0.1600 
17    H6      -0.5947  -36.7554   18.1915 H       1  LIG   0.0280   0.1500 
18    N3       0.5220  -37.2120   19.8740 N.ar    1  LIG  -0.6893  -0.6200 
19    C10      0.7040  -36.9790   21.1800 C.ar    1  LIG   0.6480   0.4100 
20    N4       1.7670  -37.6730   21.8260 N.pl3   1  LIG  -0.6924  -0.3690 
21    C11      2.7540  -36.8570   22.5840 C.ar    1  LIG   0.5805   0.4100 
22    C12      2.9040  -34.5090   25.6010 C.3     1  LIG  -0.0620   0.1435 
23    H7       2.2235  -33.7630   25.2820 H       1  LIG   0.0570   0.0000 
24    H8       2.4436  -35.1154   26.3371 H       1  LIG   0.0495   0.0000 
25    H9       3.7654  -34.0491   26.0108 H       1  LIG   0.0519   0.0000 
26    O1      -1.2400  -35.9060   23.9770 O.2     1  LIG  -0.6361  -0.5700 
27    C13      2.3440  -38.7570   21.0360 C.3     1  LIG   0.1354   0.0690 
28    H10      3.1238  -38.3754   20.4296 H       1  LIG   0.0981   0.1000 
29    C14      2.9380  -39.8900   21.8010 C.3     1  LIG  -0.1181  -0.2000 
30    H11      3.8890  -40.1268   21.3997 H       1  LIG   0.0732   0.1000 
31    H12      3.0430  -39.6129   22.8177 H       1  LIG   0.0789   0.1000 
32    C15      1.6390  -40.0610   21.0880 C.3     1  LIG  -0.1196  -0.2000 
33    H13      0.6832  -39.9283   21.5242 H       1  LIG   0.0807   0.1000 
34    H14      1.5292  -40.4423   20.1061 H       1  LIG   0.0733   0.1000 
@<TRIPOS>BOND
1     2     1     ar
2     3     2     1
3     4     2     ar
4     5     4     1
5     6     4     ar
6     7     6     ar
7     8     7     1
8     9     8     1
9     10    8     1
10    11    10    1
11    12    11    ar
12    13    12    1
13    14    12    ar
14    15    14    1
15    16    14    ar
16    17    16    1
17    18    16    ar
18    19    11    ar
19    19    18    ar
20    20    19    1
21    21    1     ar
22    21    7     ar
23    21    20    1
24    22    6     1
25    23    22    1
26    24    22    1
27    25    22    1
28    26    10    2
29    27    20    1
30    28    27    1
31    29    27    1
32    30    29    1
33    31    29    1
34    32    27    1
35    32    29    1
36    33    32    1
37    34    32    1
@<TRIPOS>SUBSTRUCTURE
1   LIG    1    
 
########## Name        : 1VRT.lig
########## Description : AM1BCC_CHARGES =  -0.0002 ORIGINAL_CHARGES =  -0.0000

@<TRIPOS>MOLECULE
1VRT.lig
34    37    1     0     0    
SMALL
USER_CHARGES
@<TRIPOS>ATOM
1     N1       4.0540  -36.9310   22.2210 N.ar    1  LIG  -0.6650  -0.6200 
2     C1       4.9660  -36.2380   22.9390 C.ar    1  LIG   0.3947   0.1600 
3     H1       6.0082  -36.2811   22.6707 H       1  LIG   0.0281   0.1500 
4     C2       4.6240  -35.4500   24.0360 C.ar    1  LIG  -0.2334  -0.1500 
5     H2       5.3884  -34.9151   24.5740 H       1  LIG   0.1480   0.1500 
6     C3       3.3050  -35.3690   24.4150 C.ar    1  LIG  -0.0698  -0.1435 
7     C4       2.3460  -36.0770   23.6860 C.ar    1  LIG  -0.0398   0.1170 
8     N2       0.9890  -36.0280   24.1030 N.am    1  LIG  -0.4596  -0.5470 
9     H3       0.7643  -35.9928   25.0860 H       1  LIG   0.3311   0.3700 
10    C5      -0.1450  -36.0180   23.4080 C.2     1  LIG   0.7361   0.5438 
11    C6      -0.1190  -36.0770   21.8860 C.ar    1  LIG  -0.2550   0.0862 
12    C7      -1.1230  -35.3990   21.1890 C.ar    1  LIG  -0.0321  -0.1500 
13    H4      -1.7552  -34.6955   21.7041 H       1  LIG   0.1623   0.1500 
14    C8      -1.2960  -35.6300   19.8690 C.ar    1  LIG  -0.2723  -0.1500 
15    H5      -2.0662  -35.1073   19.3273 H       1  LIG   0.1522   0.1500 
16    C9      -0.4670  -36.5450   19.2400 C.ar    1  LIG   0.4373   0.1600 
17    H6      -0.5947  -36.7554   18.1915 H       1  LIG   0.0280   0.1500 
18    N3       0.5220  -37.2120   19.8740 N.ar    1  LIG  -0.6893  -0.6200 
19    C10      0.7040  -36.9790   21.1800 C.ar    1  LIG   0.6480   0.4100 
20    N4       1.7670  -37.6730   21.8260 N.pl3   1  LIG  -0.6924  -0.3690 
21    C11      2.7540  -36.8570   22.5840 C.ar    1  LIG   0.5805   0.4100 
22    C12      2.9040  -34.5090   25.6010 C.3     1  LIG  -0.0620   0.1435 
23    H7       2.2235  -33.7630   25.2820 H       1  LIG   0.0570   0.0000 
24    H8       2.4436  -35.1154   26.3371 H       1  LIG   0.0495   0.0000 
25    H9       3.7654  -34.0491   26.0108 H       1  LIG   0.0519   0.0000 
26    O1      -1.2400  -35.9060   23.9770 O.2     1  LIG  -0.6361  -0.5700 
27    C13      2.3440  -38.7570   21.0360 C.3     1  LIG   0.1354   0.0690 
28    H10      3.1238  -38.3754   20.4296 H       1  LIG   0.0981   0.1000 
29    C14      2.9380  -39.8900   21.8010 C.3     1  LIG  -0.1181  -0.2000 
30    H11      3.8890  -40.1268   21.3997 H       1  LIG   0.0732   0.1000 
31    H12      3.0430  -39.6129   22.8177 H       1  LIG   0.0789   0.1000 
32    C15      1.6390  -40.0610   21.0880 C.3     1  LIG  -0.1196  -0.2000 
33    H13      0.6832  -39.9283   21.5242 H       1  LIG   0.0807   0.1000 
34    H14      1.5292  -40.4423   20.1061 H       1  LIG   0.0733   0.1000 
@<TRIPOS>BOND
1     2     1     ar
2     3     2     1
3     4     2     ar
4     5     4     1
5     6     4     ar
6     7     6     ar
7     8     7     1
8     9     8     1
9     10    8     1
10    11    10    1
11    12    11    ar
12    13    12    1
13    14    12    ar
14    15    14    1
15    16    14    ar
16    17    16    1
17    18    16    ar
18    19    11    ar
19    19    18    ar
20    20    19    1
21    21    1     ar
22    21    7     ar
23    21    20    1
24    22    6     1
25    23    22    1
26    24    22    1
27    25    22    1
28    26    10    2
29    27    20    1
30    28    27    1
31    29    27    1
32    30    29    1
33    31    29    1
34    32    27    1
35    32    29    1
36    33    32    1
37    34    32    1
@<TRIPOS>SUBSTRUCTURE
1   LIG    1    
 
########## Name        : 1VRT.lig
########## Description : AM1BCC_CHARGES =  -0.0002 ORIGINAL_CHARGES =  -0.0000

@<TRIPOS>MOLECULE
1VRT.lig
34    37    1     0     0    
SMALL
USER_CHARGES
@<TRIPOS>ATOM
1     N1       4.0540  -36.9310   22.2210 N.ar    1  LIG  -0.6650  -0.6200 
2     C1       4.9660  -36.2380   22.9390 C.ar    1  LIG   0.3947   0.1600 
3     H1       6.0082  -36.2811   22.6707 H       1  LIG   0.0281   0.1500 
4     C2       4.6240  -35.4500   24.0360 C.ar    1  LIG  -0.2334  -0.1500 
5     H2       5.3884  -34.9151   24.5740 H       1  LIG   0.1480   0.1500 
6     C3       3.3050  -35.3690   24.4150 C.ar    1  LIG  -0.0698  -0.1435 
7     C4       2.3460  -36.0770   23.6860 C.ar    1  LIG  -0.0398   0.1170 
8     N2       0.9890  -36.0280   24.1030 N.am    1  LIG  -0.4596  -0.5470 
9     H3       0.7643  -35.9928   25.0860 H       1  LIG   0.3311   0.3700 
10    C5      -0.1450  -36.0180   23.4080 C.2     1  LIG   0.7361   0.5438 
11    C6      -0.1190  -36.0770   21.8860 C.ar    1  LIG  -0.2550   0.0862 
12    C7      -1.1230  -35.3990   21.1890 C.ar    1  LIG  -0.0321  -0.1500 
13    H4      -1.7552  -34.6955   21.7041 H       1  LIG   0.1623   0.1500 
14    C8      -1.2960  -35.6300   19.8690 C.ar    1  LIG  -0.2723  -0.1500 
15    H5      -2.0662  -35.1073   19.3273 H       1  LIG   0.1522   0.1500 
16    C9      -0.4670  -36.5450   19.2400 C.ar    1  LIG   0.4373   0.1600 
17    H6      -0.5947  -36.7554   18.1915 H       1  LIG   0.0280   0.1500 
18    N3       0.5220  -37.2120   19.8740 N.ar    1  LIG  -0.6893  -0.6200 
19    C10      0.7040  -36.9790   21.1800 C.ar    1  LIG   0.6480   0.4100 
20    N4       1.7670  -37.6730   21.8260 N.pl3   1  LIG  -0.6924  -0.3690 
21    C11      2.7540  -36.8570   22.5840 C.ar    1  LIG   0.5805   0.4100 
22    C12      2.9040  -34.5090   25.6010 C.3     1  LIG  -0.0620   0.1435 
23    H7       2.2235  -33.7630   25.2820 H       1  LIG   0.0570   0.0000 
24    H8       2.4436  -35.1154   26.3371 H       1  LIG   0.0495   0.0000 
25    H9       3.7654  -34.0491   26.0108 H       1  LIG   0.0519   0.0000 
26    O1      -1.2400  -35.9060   23.9770 O.2     1  LIG  -0.6361  -0.5700 
27    C13      2.3440  -38.7570   21.0360 C.3     1  LIG   0.1354   0.0690 
28    H10      3.1238  -38.3754   20.4296 H       1  LIG   0.0981   0.1000 
29    C14      2.9380  -39.8900   21.8010 C.3     1  LIG  -0.1181  -0.2000 
30    H11      3.8890  -40.1268   21.3997 H       1  LIG   0.0732   0.1000 
31    H12      3.0430  -39.6129   22.8177 H       1  LIG   0.0789   0.1000 
32    C15      1.6390  -40.0610   21.0880 C.3     1  LIG  -0.1196  -0.2000 
33    H13      0.6832  -39.9283   21.5242 H       1  LIG   0.0807   0.1000 
34    H14      1.5292  -40.4423   20.1061 H       1  LIG   0.0733   0.1000 
@<TRIPOS>BOND
1     2     1     ar
2     3     2     1
3     4     2     ar
4     5     4     1
5     6     4     ar
6     7     6     ar
7     8     7     1
8     9     8     1
9     10    8     1
10    11    10    1
11    12    11    ar
12    13    12    1
13    14    12    ar
14    15    14    1
15    16    14    ar
16    17    16    1
17    18    16    ar
18    19    11    ar
19    19    18    ar
20    20    19    1
21    21    1     ar
22    21    7     ar
23    21    20    1
24    22    6     1
25    23    22    1
26    24    22    1
27    25    22    1
28    26    10    2
29    27    20    1
30    28    27    1
31    29    27    1
32    30    29    1
33    31    29    1
34    32    27    1
35    32    29    1
36    33    32    1
37    34    32    1
@<TRIPOS>SUBSTRUCTURE
1   LIG    1    
 
########## Name        : 1VRT.lig
########## Description : AM1BCC_CHARGES =  -0.0002 ORIGINAL_CHARGES =  -0.0000

@<TRIPOS>MOLECULE
1VRT.lig
34    37    1     0     0    
SMALL
USER_CHARGES
@<TRIPOS>ATOM
1     N1       4.0540  -36.9310   22.2210 N.ar    1  LIG  -0.6650  -0.6200 
2     C1       4.9660  -36.2380   22.9390 C.ar    1  LIG   0.3947   0.1600 
3     H1       6.0082  -36.2811   22.6707 H       1  LIG   0.0281   0.1500 
4     C2       4.6240  -35.4500   24.0360 C.ar    1  LIG  -0.2334  -0.1500 
5     H2       5.3884  -34.9151   24.5740 H       1  LIG   0.1480   0.1500 
6     C3       3.3050  -35.3690   24.4150 C.ar    1  LIG  -0.0698  -0.1435 
7     C4       2.3460  -36.0770   23.6860 C.ar    1  LIG  -0.0398   0.1170 
8     N2       0.9890  -36.0280   24.1030 N.am    1  LIG  -0.4596  -0.5470 
9     H3       0.7643  -35.9928   25.0860 H       1  LIG   0.3311   0.3700 
10    C5      -0.1450  -36.0180   23.4080 C.2     1  LIG   0.7361   0.5438 
11    C6      -0.1190  -36.0770   21.8860 C.ar    1  LIG  -0.2550   0.0862 
12    C7      -1.1230  -35.3990   21.1890 C.ar    1  LIG  -0.0321  -0.1500 
13    H4      -1.7552  -34.6955   21.7041 H       1  LIG   0.1623   0.1500 
14    C8      -1.2960  -35.6300   19.8690 C.ar    1  LIG  -0.2723  -0.1500 
15    H5      -2.0662  -35.1073   19.3273 H       1  LIG   0.1522   0.1500 
16    C9      -0.4670  -36.5450   19.2400 C.ar    1  LIG   0.4373   0.1600 
17    H6      -0.5947  -36.7554   18.1915 H       1  LIG   0.0280   0.1500 
18    N3       0.5220  -37.2120   19.8740 N.ar    1  LIG  -0.6893  -0.6200 
19    C10      0.7040  -36.9790   21.1800 C.ar    1  LIG   0.6480   0.4100 
20    N4       1.7670  -37.6730   21.8260 N.pl3   1  LIG  -0.6924  -0.3690 
21    C11      2.7540  -36.8570   22.5840 C.ar    1  LIG   0.5805   0.4100 
22    C12      2.9040  -34.5090   25.6010 C.3     1  LIG  -0.0620   0.1435 
23    H7       2.2235  -33.7630   25.2820 H       1  LIG   0.0570   0.0000 
24    H8       2.4436  -35.1154   26.3371 H       1  LIG   0.0495   0.0000 
25    H9       3.7654  -34.0491   26.0108 H       1  LIG   0.0519   0.0000 
26    O1      -1.2400  -35.9060   23.9770 O.2     1  LIG  -0.6361  -0.5700 
27    C13      2.3440  -38.7570   21.0360 C.3     1  LIG   0.1354   0.0690 
28    H10      3.1238  -38.3754   20.4296 H       1  LIG   0.0981   0.1000 
29    C14      2.9380  -39.8900   21.8010 C.3     1  LIG  -0.1181  -0.2000 
30    H11      3.8890  -40.1268   21.3997 H       1  LIG   0.0732   0.1000 
31    H12      3.0430  -39.6129   22.8177 H       1  LIG   0.0789   0.1000 
32    C15      1.6390  -40.0610   21.0880 C.3     1  LIG  -0.1196  -0.2000 
33    H13      0.6832  -39.9283   21.5242 H       1  LIG   0.0807   0.1000 
34    H14      1.5292  -40.4423   20.1061 H       1  LIG   0.0733   0.1000 
@<TRIPOS>BOND
1     2     1     ar
2     3     2     1
3     4     2     ar
4     5     4     1
5     6     4     ar
6     7     6     ar
7     8     7     1
8     9     8     1
9     10    8     1
10    11    10    1
11    12    11    ar
12    13    12    1
13    14    12    ar
14    15    14    1
15    16    14    ar
16    17    16    1
17    18    16    ar
18    19    11    ar
19    19    18    ar
20    20    19    1
21    21    1     ar
22    21    7     ar
23    21    20    1
24    22    6     1
25    23    22    1
26    24    22    1
27    25    22    1
28    26    10    2
29    27    20    1
30    28    27    1
31    29    27    1
32    30    29    1
33    31    29    1
34    32    27    1
35    32    29    1
36    33    32    1
37    34    32    1
@<TRIPOS>SUBSTRUCTURE
1   LIG    1    
 
########## Name        : 1VRT.lig
########## Description : AM1BCC_CHARGES =  -0.0002 ORIGINAL_CHARGES =  -0.0000

@<TRIPOS>MOLECULE
1VRT.lig
34    37    1     0     0    
SMALL
USER_CHARGES
@<TRIPOS>ATOM
1     N1       4.0540  -36.9310   22.2210 N.ar    1  LIG  -0.6650  -0.6200 
2     C1       4.9660  -36.2380   22.9390 C.ar    1  LIG   0.3947   0.1600 
3     H1       6.0082  -36.2811   22.6707 H       1  LIG   0.0281   0.1500 
4     C2       4.6240  -35.4500   24.0360 C.ar    1  LIG  -0.2334  -0.1500 
5     H2       5.3884  -34.9151   24.5740 H       1  LIG   0.1480   0.1500 
6     C3       3.3050  -35.3690   24.4150 C.ar    1  LIG  -0.0698  -0.1435 
7     C4       2.3460  -36.0770   23.6860 C.ar    1  LIG  -0.0398   0.1170 
8     N2       0.9890  -36.0280   24.1030 N.am    1  LIG  -0.4596  -0.5470 
9     H3       0.7643  -35.9928   25.0860 H       1  LIG   0.3311   0.3700 
10    C5      -0.1450  -36.0180   23.4080 C.2     1  LIG   0.7361   0.5438 
11    C6      -0.1190  -36.0770   21.8860 C.ar    1  LIG  -0.2550   0.0862 
12    C7      -1.1230  -35.3990   21.1890 C.ar    1  LIG  -0.0321  -0.1500 
13    H4      -1.7552  -34.6955   21.7041 H       1  LIG   0.1623   0.1500 
14    C8      -1.2960  -35.6300   19.8690 C.ar    1  LIG  -0.2723  -0.1500 
15    H5      -2.0662  -35.1073   19.3273 H       1  LIG   0.1522   0.1500 
16    C9      -0.4670  -36.5450   19.2400 C.ar    1  LIG   0.4373   0.1600 
17    H6      -0.5947  -36.7554   18.1915 H       1  LIG   0.0280   0.1500 
18    N3       0.5220  -37.2120   19.8740 N.ar    1  LIG  -0.6893  -0.6200 
19    C10      0.7040  -36.9790   21.1800 C.ar    1  LIG   0.6480   0.4100 
20    N4       1.7670  -37.6730   21.8260 N.pl3   1  LIG  -0.6924  -0.3690 
21    C11      2.7540  -36.8570   22.5840 C.ar    1  LIG   0.5805   0.4100 
22    C12      2.9040  -34.5090   25.6010 C.3     1  LIG  -0.0620   0.1435 
23    H7       2.2235  -33.7630   25.2820 H       1  LIG   0.0570   0.0000 
24    H8       2.4436  -35.1154   26.3371 H       1  LIG   0.0495   0.0000 
25    H9       3.7654  -34.0491   26.0108 H       1  LIG   0.0519   0.0000 
26    O1      -1.2400  -35.9060   23.9770 O.2     1  LIG  -0.6361  -0.5700 
27    C13      2.3440  -38.7570   21.0360 C.3     1  LIG   0.1354   0.0690 
28    H10      3.1238  -38.3754   20.4296 H       1  LIG   0.0981   0.1000 
29    C14      2.9380  -39.8900   21.8010 C.3     1  LIG  -0.1181  -0.2000 
30    H11      3.8890  -40.1268   21.3997 H       1  LIG   0.0732   0.1000 
31    H12      3.0430  -39.6129   22.8177 H       1  LIG   0.0789   0.1000 
32    C15      1.6390  -40.0610   21.0880 C.3     1  LIG  -0.1196  -0.2000 
33    H13      0.6832  -39.9283   21.5242 H       1  LIG   0.0807   0.1000 
34    H14      1.5292  -40.4423   20.1061 H       1  LIG   0.0733   0.1000 
@<TRIPOS>BOND
1     2     1     ar
2     3     2     1
3     4     2     ar
4     5     4     1
5     6     4     ar
6     7     6     ar
7     8     7     1
8     9     8     1
9     10    8     1
10    11    10    1
11    12    11    ar
12    13    12    1
13    14    12    ar
14    15    14    1
15    16    14    ar
16    17    16    1
17    18    16    ar
18    19    11    ar
19    19    18    ar
20    20    19    1
21    21    1     ar
22    21    7     ar
23    21    20    1
24    22    6     1
25    23    22    1
26    24    22    1
27    25    22    1
28    26    10    2
29    27    20    1
30    28    27    1
31    29    27    1
32    30    29    1
33    31    29    1
34    32    27    1
35    32    29    1
36    33    32    1
37    34    32    1
@<TRIPOS>SUBSTRUCTURE
1   LIG    1    
 
########## Name        : 1VRT.lig
########## Description : AM1BCC_CHARGES =  -0.0002 ORIGINAL_CHARGES =  -0.0000

@<TRIPOS>MOLECULE
1VRT.lig
34    37    1     0     0    
SMALL
USER_CHARGES
@<TRIPOS>ATOM
1     N1       4.0540  -36.9310   22.2210 N.ar    1  LIG  -0.6650  -0.6200 
2     C1       4.9660  -36.2380   22.9390 C.ar    1  LIG   0.3947   0.1600 
3     H1       6.0082  -36.2811   22.6707 H       1  LIG   0.0281   0.1500 
4     C2       4.6240  -35.4500   24.0360 C.ar    1  LIG  -0.2334  -0.1500 
5     H2       5.3884  -34.9151   24.5740 H       1  LIG   0.1480   0.1500 
6     C3       3.3050  -35.3690   24.4150 C.ar    1  LIG  -0.0698  -0.1435 
7     C4       2.3460  -36.0770   23.6860 C.ar    1  LIG  -0.0398   0.1170 
8     N2       0.9890  -36.0280   24.1030 N.am    1  LIG  -0.4596  -0.5470 
9     H3       0.7643  -35.9928   25.0860 H       1  LIG   0.3311   0.3700 
10    C5      -0.1450  -36.0180   23.4080 C.2     1  LIG   0.7361   0.5438 
11    C6      -0.1190  -36.0770   21.8860 C.ar    1  LIG  -0.2550   0.0862 
12    C7      -1.1230  -35.3990   21.1890 C.ar    1  LIG  -0.0321  -0.1500 
13    H4      -1.7552  -34.6955   21.7041 H       1  LIG   0.1623   0.1500 
14    C8      -1.2960  -35.6300   19.8690 C.ar    1  LIG  -0.2723  -0.1500 
15    H5      -2.0662  -35.1073   19.3273 H       1  LIG   0.1522   0.1500 
16    C9      -0.4670  -36.5450   19.2400 C.ar    1  LIG   0.4373   0.1600 
17    H6      -0.5947  -36.7554   18.1915 H       1  LIG   0.0280   0.1500 
18    N3       0.5220  -37.2120   19.8740 N.ar    1  LIG  -0.6893  -0.6200 
19    C10      0.7040  -36.9790   21.1800 C.ar    1  LIG   0.6480   0.4100 
20    N4       1.7670  -37.6730   21.8260 N.pl3   1  LIG  -0.6924  -0.3690 
21    C11      2.7540  -36.8570   22.5840 C.ar    1  LIG   0.5805   0.4100 
22    C12      2.9040  -34.5090   25.6010 C.3     1  LIG  -0.0620   0.1435 
23    H7       2.2235  -33.7630   25.2820 H       1  LIG   0.0570   0.0000 
24    H8       2.4436  -35.1154   26.3371 H       1  LIG   0.0495   0.0000 
25    H9       3.7654  -34.0491   26.0108 H       1  LIG   0.0519   0.0000 
26    O1      -1.2400  -35.9060   23.9770 O.2     1  LIG  -0.6361  -0.5700 
27    C13      2.3440  -38.7570   21.0360 C.3     1  LIG   0.1354   0.0690 
28    H10      3.1238  -38.3754   20.4296 H       1  LIG   0.0981   0.1000 
29    C14      2.9380  -39.8900   21.8010 C.3     1  LIG  -0.1181  -0.2000 
30    H11      3.8890  -40.1268   21.3997 H       1  LIG   0.0732   0.1000 
31    H12      3.0430  -39.6129   22.8177 H       1  LIG   0.0789   0.1000 
32    C15      1.6390  -40.0610   21.0880 C.3     1  LIG  -0.1196  -0.2000 
33    H13      0.6832  -39.9283   21.5242 H       1  LIG   0.0807   0.1000 
34    H14      1.5292  -40.4423   20.1061 H       1  LIG   0.0733   0.1000 
@<TRIPOS>BOND
1     2     1     ar
2     3     2     1
3     4     2     ar
4     5     4     1
5     6     4     ar
6     7     6     ar
7     8     7     1
8     9     8     1
9     10    8     1
10    11    10    1
11    12    11    ar
12    13    12    1
13    14    12    ar
14    15    14    1
15    16    14    ar
16    17    16    1
17    18    16    ar
18    19    11    ar
19    19    18    ar
20    20    19    1
21    21    1     ar
22    21    7     ar
23    21    20    1
24    22    6     1
25    23    22    1
26    24    22    1
27    25    22    1
28    26    10    2
29    27    20    1
30    28    27    1
31    29    27    1
32    30    29    1
33    31    29    1
34    32    27    1
35    32    29    1
36    33    32    1
37    34    32    1
@<TRIPOS>SUBSTRUCTURE
1   LIG    1    
 
########## Name        : 1VRT.lig
########## Description : AM1BCC_CHARGES =  -0.0002 ORIGINAL_CHARGES =  -0.0000

@<TRIPOS>MOLECULE
1VRT.lig
34    37    1     0     0    
SMALL
USER_CHARGES
@<TRIPOS>ATOM
1     N1       4.0540  -36.9310   22.2210 N.ar    1  LIG  -0.6650  -0.6200 
2     C1       4.9660  -36.2380   22.9390 C.ar    1  LIG   0.3947   0.1600 
3     H1       6.0082  -36.2811   22.6707 H       1  LIG   0.0281   0.1500 
4     C2       4.6240  -35.4500   24.0360 C.ar    1  LIG  -0.2334  -0.1500 
5     H2       5.3884  -34.9151   24.5740 H       1  LIG   0.1480   0.1500 
6     C3       3.3050  -35.3690   24.4150 C.ar    1  LIG  -0.0698  -0.1435 
7     C4       2.3460  -36.0770   23.6860 C.ar    1  LIG  -0.0398   0.1170 
8     N2       0.9890  -36.0280   24.1030 N.am    1  LIG  -0.4596  -0.5470 
9     H3       0.7643  -35.9928   25.0860 H       1  LIG   0.3311   0.3700 
10    C5      -0.1450  -36.0180   23.4080 C.2     1  LIG   0.7361   0.5438 
11    C6      -0.1190  -36.0770   21.8860 C.ar    1  LIG  -0.2550   0.0862 
12    C7      -1.1230  -35.3990   21.1890 C.ar    1  LIG  -0.0321  -0.1500 
13    H4      -1.7552  -34.6955   21.7041 H       1  LIG   0.1623   0.1500 
14    C8      -1.2960  -35.6300   19.8690 C.ar    1  LIG  -0.2723  -0.1500 
15    H5      -2.0662  -35.1073   19.3273 H       1  LIG   0.1522   0.1500 
16    C9      -0.4670  -36.5450   19.2400 C.ar    1  LIG   0.4373   0.1600 
17    H6      -0.5947  -36.7554   18.1915 H       1  LIG   0.0280   0.1500 
18    N3       0.5220  -37.2120   19.8740 N.ar    1  LIG  -0.6893  -0.6200 
19    C10      0.7040  -36.9790   21.1800 C.ar    1  LIG   0.6480   0.4100 
20    N4       1.7670  -37.6730   21.8260 N.pl3   1  LIG  -0.6924  -0.3690 
21    C11      2.7540  -36.8570   22.5840 C.ar    1  LIG   0.5805   0.4100 
22    C12      2.9040  -34.5090   25.6010 C.3     1  LIG  -0.0620   0.1435 
23    H7       2.2235  -33.7630   25.2820 H       1  LIG   0.0570   0.0000 
24    H8       2.4436  -35.1154   26.3371 H       1  LIG   0.0495   0.0000 
25    H9       3.7654  -34.0491   26.0108 H       1  LIG   0.0519   0.0000 
26    O1      -1.2400  -35.9060   23.9770 O.2     1  LIG  -0.6361  -0.5700 
27    C13      2.3440  -38.7570   21.0360 C.3     1  LIG   0.1354   0.0690 
28    H10      3.1238  -38.3754   20.4296 H       1  LIG   0.0981   0.1000 
29    C14      2.9380  -39.8900   21.8010 C.3     1  LIG  -0.1181  -0.2000 
30    H11      3.8890  -40.1268   21.3997 H       1  LIG   0.0732   0.1000 
31    H12      3.0430  -39.6129   22.8177 H       1  LIG   0.0789   0.1000 
32    C15      1.6390  -40.0610   21.0880 C.3     1  LIG  -0.1196  -0.2000 
33    H13      0.6832  -39.9283   21.5242 H       1  LIG   0.0807   0.1000 
34    H14      1.5292  -40.4423   20.1061 H       1  LIG   0.0733   0.1000 
@<TRIPOS>BOND
1     2     1     ar
2     3     2     1
3     4     2     ar
4     5     4     1
5     6     4     ar
6     7     6     ar
7     8     7     1
8     9     8     1
9     10    8     1
10    11    10    1
11    12    11    ar
12    13    12    1
13    14    12    ar
14    15    14    1
15    16    14    ar
16    17    16    1
17    18    16    ar
18    19    11    ar
19    19    18    ar
20    20    19    1
21    21    1     ar
22    21    7     ar
23    21    20    1
24    22    6     1
25    23    22    1
26    24    22    1
27    25    22    1
28    26    10    2
29    27    20    1
30    28    27    1
31    29    27    1
32    30    29    1
33    31    29    1
34    32    27    1
35    32    29    1
36    33    32    1
37    34    32    1
@<TRIPOS>SUBSTRUCTURE
1   LIG    1    
 
########## Name        : 1VRT.lig
########## Description : AM1BCC_CHARGES =  -0.0002 ORIGINAL_CHARGES =  -0.0000

@<TRIPOS>MOLECULE
1VRT.lig
34    37    1     0     0    
SMALL
USER_CHARGES
@<TRIPOS>ATOM
1     N1       4.0540  -36.9310   22.2210 N.ar    1  LIG  -0.6650  -0.6200 
2     C1       4.9660  -36.2380   22.9390 C.ar    1  LIG   0.3947   0.1600 
3     H1       6.0082  -36.2811   22.6707 H       1  LIG   0.0281   0.1500 
4     C2       4.6240  -35.4500   24.0360 C.ar    1  LIG  -0.2334  -0.1500 
5     H2       5.3884  -34.9151   24.5740 H       1  LIG   0.1480   0.1500 
6     C3       3.3050  -35.3690   24.4150 C.ar    1  LIG  -0.0698  -0.1435 
7     C4       2.3460  -36.0770   23.6860 C.ar    1  LIG  -0.0398   0.1170 
8     N2       0.9890  -36.0280   24.1030 N.am    1  LIG  -0.4596  -0.5470 
9     H3       0.7643  -35.9928   25.0860 H       1  LIG   0.3311   0.3700 
10    C5      -0.1450  -36.0180   23.4080 C.2     1  LIG   0.7361   0.5438 
11    C6      -0.1190  -36.0770   21.8860 C.ar    1  LIG  -0.2550   0.0862 
12    C7      -1.1230  -35.3990   21.1890 C.ar    1  LIG  -0.0321  -0.1500 
13    H4      -1.7552  -34.6955   21.7041 H       1  LIG   0.1623   0.1500 
14    C8      -1.2960  -35.6300   19.8690 C.ar    1  LIG  -0.2723  -0.1500 
15    H5      -2.0662  -35.1073   19.3273 H       1  LIG   0.1522   0.1500 
16    C9      -0.4670  -36.5450   19.2400 C.ar    1  LIG   0.4373   0.1600 
17    H6      -0.5947  -36.7554   18.1915 H       1  LIG   0.0280   0.1500 
18    N3       0.5220  -37.2120   19.8740 N.ar    1  LIG  -0.6893  -0.6200 
19    C10      0.7040  -36.9790   21.1800 C.ar    1  LIG   0.6480   0.4100 
20    N4       1.7670  -37.6730   21.8260 N.pl3   1  LIG  -0.6924  -0.3690 
21    C11      2.7540  -36.8570   22.5840 C.ar    1  LIG   0.5805   0.4100 
22    C12      2.9040  -34.5090   25.6010 C.3     1  LIG  -0.0620   0.1435 
23    H7       2.2235  -33.7630   25.2820 H       1  LIG   0.0570   0.0000 
24    H8       2.4436  -35.1154   26.3371 H       1  LIG   0.0495   0.0000 
25    H9       3.7654  -34.0491   26.0108 H       1  LIG   0.0519   0.0000 
26    O1      -1.2400  -35.9060   23.9770 O.2     1  LIG  -0.6361  -0.5700 
27    C13      2.3440  -38.7570   21.0360 C.3     1  LIG   0.1354   0.0690 
28    H10      3.1238  -38.3754   20.4296 H       1  LIG   0.0981   0.1000 
29    C14      2.9380  -39.8900   21.8010 C.3     1  LIG  -0.1181  -0.2000 
30    H11      3.8890  -40.1268   21.3997 H       1  LIG   0.0732   0.1000 
31    H12      3.0430  -39.6129   22.8177 H       1  LIG   0.0789   0.1000 
32    C15      1.6390  -40.0610   21.0880 C.3     1  LIG  -0.1196  -0.2000 
33    H13      0.6832  -39.9283   21.5242 H       1  LIG   0.0807   0.1000 
34    H14      1.5292  -40.4423   20.1061 H       1  LIG   0.0733   0.1000 
@<TRIPOS>BOND
1     2     1     ar
2     3     2     1
3     4     2     ar
4     5     4     1
5     6     4     ar
6     7     6     ar
7     8     7     1
8     9     8     1
9     10    8     1
10    11    10    1
11    12    11    ar
12    13    12    1
13    14    12    ar
14    15    14    1
15    16    14    ar
16    17    16    1
17    18    16    ar
18    19    11    ar
19    19    18    ar
20    20    19    1
21    21    1     ar
22    21    7     ar
23    21    20    1
24    22    6     1
25    23    22    1
26    24    22    1
27    25    22    1
28    26    10    2
29    27    20    1
30    28    27    1
31    29    27    1
32    30    29    1
33    31    29    1
34    32    27    1
35    32    29    1
36    33    32    1
37    34    32    1
@<TRIPOS>SUBSTRUCTURE
1   LIG    1    
 
########## Name        : 1VRT.lig
########## Description : AM1BCC_CHARGES =  -0.0002 ORIGINAL_CHARGES =  -0.0000

@<TRIPOS>MOLECULE
1VRT.lig
34    37    1     0     0    
SMALL
USER_CHARGES
@<TRIPOS>ATOM
1     N1       4.0540  -36.9310   22.2210 N.ar    1  LIG  -0.6650  -0.6200 
2     C1       4.9660  -36.2380   22.9390 C.ar    1  LIG   0.3947   0.1600 
3     H1       6.0082  -36.2811   22.6707 H       1  LIG   0.0281   0.1500 
4     C2       4.6240  -35.4500   24.0360 C.ar    1  LIG  -0.2334  -0.1500 
5     H2       5.3884  -34.9151   24.5740 H       1  LIG   0.1480   0.1500 
6     C3       3.3050  -35.3690   24.4150 C.ar    1  LIG  -0.0698  -0.1435 
7     C4       2.3460  -36.0770   23.6860 C.ar    1  LIG  -0.0398   0.1170 
8     N2       0.9890  -36.0280   24.1030 N.am    1  LIG  -0.4596  -0.5470 
9     H3       0.7643  -35.9928   25.0860 H       1  LIG   0.3311   0.3700 
10    C5      -0.1450  -36.0180   23.4080 C.2     1  LIG   0.7361   0.5438 
11    C6      -0.1190  -36.0770   21.8860 C.ar    1  LIG  -0.2550   0.0862 
12    C7      -1.1230  -35.3990   21.1890 C.ar    1  LIG  -0.0321  -0.1500 
13    H4      -1.7552  -34.6955   21.7041 H       1  LIG   0.1623   0.1500 
14    C8      -1.2960  -35.6300   19.8690 C.ar    1  LIG  -0.2723  -0.1500 
15    H5      -2.0662  -35.1073   19.3273 H       1  LIG   0.1522   0.1500 
16    C9      -0.4670  -36.5450   19.2400 C.ar    1  LIG   0.4373   0.1600 
17    H6      -0.5947  -36.7554   18.1915 H       1  LIG   0.0280   0.1500 
18    N3       0.5220  -37.2120   19.8740 N.ar    1  LIG  -0.6893  -0.6200 
19    C10      0.7040  -36.9790   21.1800 C.ar    1  LIG   0.6480   0.4100 
20    N4       1.7670  -37.6730   21.8260 N.pl3   1  LIG  -0.6924  -0.3690 
21    C11      2.7540  -36.8570   22.5840 C.ar    1  LIG   0.5805   0.4100 
22    C12      2.9040  -34.5090   25.6010 C.3     1  LIG  -0.0620   0.1435 
23    H7       2.2235  -33.7630   25.2820 H       1  LIG   0.0570   0.0000 
24    H8       2.4436  -35.1154   26.3371 H       1  LIG   0.0495   0.0000 
25    H9       3.7654  -34.0491   26.0108 H       1  LIG   0.0519   0.0000 
26    O1      -1.2400  -35.9060   23.9770 O.2     1  LIG  -0.6361  -0.5700 
27    C13      2.3440  -38.7570   21.0360 C.3     1  LIG   0.1354   0.0690 
28    H10      3.1238  -38.3754   20.4296 H       1  LIG   0.0981   0.1000 
29    C14      2.9380  -39.8900   21.8010 C.3     1  LIG  -0.1181  -0.2000 
30    H11      3.8890  -40.1268   21.3997 H       1  LIG   0.0732   0.1000 
31    H12      3.0430  -39.6129   22.8177 H       1  LIG   0.0789   0.1000 
32    C15      1.6390  -40.0610   21.0880 C.3     1  LIG  -0.1196  -0.2000 
33    H13      0.6832  -39.9283   21.5242 H       1  LIG   0.0807   0.1000 
34    H14      1.5292  -40.4423   20.1061 H       1  LIG   0.0733   0.1000 
@<TRIPOS>BOND
1     2     1     ar
2     3     2     1
3     4     2     ar
4     5     4     1
5     6     4     ar
6     7     6     ar
7     8     7     1
8     9     8     1
9     10    8     1
10    11    10    1
11    12    11    ar
12    13    12    1
13    14    12    ar
14    15    14    1
15    16    14    ar
16    17    16    1
17    18    16    ar
18    19    11    ar
19    19    18    ar
20    20    19    1
21    21    1     ar
22    21    7     ar
23    21    20    1
24    22    6     1
25    23    22    1
26    24    22    1
27    25    22    1
28    26    10    2
29    27    20    1
30    28    27    1
31    29    27    1
32    30    29    1
33    31    29    1
34    32    27    1
35    32    29    1
36    33    32    1
37    34    32    1
@<TRIPOS>SUBSTRUCTURE
1   LIG    1    
 
########## Name        : 1VRT.lig
########## Description : AM1BCC_CHARGES =  -0.0002 ORIGINAL_CHARGES =  -0.0000

@<TRIPOS>MOLECULE
1VRT.lig
34    37    1     0     0    
SMALL
USER_CHARGES
@<TRIPOS>ATOM
1     N1       4.0540  -36.9310   22.2210 N.ar    1  LIG  -0.6650  -0.6200 
2     C1       4.9660  -36.2380   22.9390 C.ar    1  LIG   0.3947   0.1600 
3     H1       6.0082  -36.2811   22.6707 H       1  LIG   0.0281   0.1500 
4     C2       4.6240  -35.4500   24.0360 C.ar    1  LIG  -0.2334  -0.1500 
5     H2       5.3884  -34.9151   24.5740 H       1  LIG   0.1480   0.1500 
6     C3       3.3050  -35.3690   24.4150 C.ar    1  LIG  -0.0698  -0.1435 
7     C4       2.3460  -36.0770   23.6860 C.ar    1  LIG  -0.0398   0.1170 
8     N2       0.9890  -36.0280   24.1030 N.am    1  LIG  -0.4596  -0.5470 
9     H3       0.7643  -35.9928   25.0860 H       1  LIG   0.3311   0.3700 
10    C5      -0.1450  -36.0180   23.4080 C.2     1  LIG   0.7361   0.5438 
11    C6      -0.1190  -36.0770   21.8860 C.ar    1  LIG  -0.2550   0.0862 
12    C7      -1.1230  -35.3990   21.1890 C.ar    1  LIG  -0.0321  -0.1500 
13    H4      -1.7552  -34.6955   21.7041 H       1  LIG   0.1623   0.1500 
14    C8      -1.2960  -35.6300   19.8690 C.ar    1  LIG  -0.2723  -0.1500 
15    H5      -2.0662  -35.1073   19.3273 H       1  LIG   0.1522   0.1500 
16    C9      -0.4670  -36.5450   19.2400 C.ar    1  LIG   0.4373   0.1600 
17    H6      -0.5947  -36.7554   18.1915 H       1  LIG   0.0280   0.1500 
18    N3       0.5220  -37.2120   19.8740 N.ar    1  LIG  -0.6893  -0.6200 
19    C10      0.7040  -36.9790   21.1800 C.ar    1  LIG   0.6480   0.4100 
20    N4       1.7670  -37.6730   21.8260 N.pl3   1  LIG  -0.6924  -0.3690 
21    C11      2.7540  -36.8570   22.5840 C.ar    1  LIG   0.5805   0.4100 
22    C12      2.9040  -34.5090   25.6010 C.3     1  LIG  -0.0620   0.1435 
23    H7       2.2235  -33.7630   25.2820 H       1  LIG   0.0570   0.0000 
24    H8       2.4436  -35.1154   26.3371 H       1  LIG   0.0495   0.0000 
25    H9       3.7654  -34.0491   26.0108 H       1  LIG   0.0519   0.0000 
26    O1      -1.2400  -35.9060   23.9770 O.2     1  LIG  -0.6361  -0.5700 
27    C13      2.3440  -38.7570   21.0360 C.3     1  LIG   0.1354   0.0690 
28    H10      3.1238  -38.3754   20.4296 H       1  LIG   0.0981   0.1000 
29    C14      2.9380  -39.8900   21.8010 C.3     1  LIG  -0.1181  -0.2000 
30    H11      3.8890  -40.1268   21.3997 H       1  LIG   0.0732   0.1000 
31    H12      3.0430  -39.6129   22.8177 H       1  LIG   0.0789   0.1000 
32    C15      1.6390  -40.0610   21.0880 C.3     1  LIG  -0.1196  -0.2000 
33    H13      0.6832  -39.9283   21.5242 H       1  LIG   0.0807   0.1000 
34    H14      1.5292  -40.4423   20.1061 H       1  LIG   0.0733   0.1000 
@<TRIPOS>BOND
1     2     1     ar
2     3     2     1
3     4     2     ar
4     5     4     1
5     6     4     ar
6     7     6     ar
7     8     7     1
8     9     8     1
9     10    8     1
10    11    10    1
11    12    11    ar
12    13    12    1
13    14    12    ar
14    15    14    1
15    16    14    ar
16    17    16    1
17    18    16    ar
18    19    11    ar
19    19    18    ar
20    20    19    1
21    21    1     ar
22    21    7     ar
23    21    20    1
24    22    6     1
25    23    22    1
26    24    22    1
27    25    22    1
28    26    10    2
29    27    20    1
30    28    27    1
31    29    27    1
32    30    29    1
33    31    29    1
34    32    27    1
35    32    29    1
36    33    32    1
37    34    32    1
@<TRIPOS>SUBSTRUCTURE
1   LIG    1    
 
########## Name        : 1VRT.lig
########## Description : AM1BCC_CHARGES =  -0.0002 ORIGINAL_CHARGES =  -0.0000

@<TRIPOS>MOLECULE
1VRT.lig
34    37    1     0     0    
SMALL
USER_CHARGES
@<TRIPOS>ATOM
1     N1       4.0540  -36.9310   22.2210 N.ar    1  LIG  -0.6650  -0.6200 
2     C1       4.9660  -36.2380   22.9390 C.ar    1  LIG   0.3947   0.1600 
3     H1       6.0082  -36.2811   22.6707 H       1  LIG   0.0281   0.1500 
4     C2       4.6240  -35.4500   24.0360 C.ar    1  LIG  -0.2334  -0.1500 
5     H2       5.3884  -34.9151   24.5740 H       1  LIG   0.1480   0.1500 
6     C3       3.3050  -35.3690   24.4150 C.ar    1  LIG  -0.0698  -0.1435 
7     C4       2.3460  -36.0770   23.6860 C.ar    1  LIG  -0.0398   0.1170 
8     N2       0.9890  -36.0280   24.1030 N.am    1  LIG  -0.4596  -0.5470 
9     H3       0.7643  -35.9928   25.0860 H       1  LIG   0.3311   0.3700 
10    C5      -0.1450  -36.0180   23.4080 C.2     1  LIG   0.7361   0.5438 
11    C6      -0.1190  -36.0770   21.8860 C.ar    1  LIG  -0.2550   0.0862 
12    C7      -1.1230  -35.3990   21.1890 C.ar    1  LIG  -0.0321  -0.1500 
13    H4      -1.7552  -34.6955   21.7041 H       1  LIG   0.1623   0.1500 
14    C8      -1.2960  -35.6300   19.8690 C.ar    1  LIG  -0.2723  -0.1500 
15    H5      -2.0662  -35.1073   19.3273 H       1  LIG   0.1522   0.1500 
16    C9      -0.4670  -36.5450   19.2400 C.ar    1  LIG   0.4373   0.1600 
17    H6      -0.5947  -36.7554   18.1915 H       1  LIG   0.0280   0.1500 
18    N3       0.5220  -37.2120   19.8740 N.ar    1  LIG  -0.6893  -0.6200 
19    C10      0.7040  -36.9790   21.1800 C.ar    1  LIG   0.6480   0.4100 
20    N4       1.7670  -37.6730   21.8260 N.pl3   1  LIG  -0.6924  -0.3690 
21    C11      2.7540  -36.8570   22.5840 C.ar    1  LIG   0.5805   0.4100 
22    C12      2.9040  -34.5090   25.6010 C.3     1  LIG  -0.0620   0.1435 
23    H7       2.2235  -33.7630   25.2820 H       1  LIG   0.0570   0.0000 
24    H8       2.4436  -35.1154   26.3371 H       1  LIG   0.0495   0.0000 
25    H9       3.7654  -34.0491   26.0108 H       1  LIG   0.0519   0.0000 
26    O1      -1.2400  -35.9060   23.9770 O.2     1  LIG  -0.6361  -0.5700 
27    C13      2.3440  -38.7570   21.0360 C.3     1  LIG   0.1354   0.0690 
28    H10      3.1238  -38.3754   20.4296 H       1  LIG   0.0981   0.1000 
29    C14      2.9380  -39.8900   21.8010 C.3     1  LIG  -0.1181  -0.2000 
30    H11      3.8890  -40.1268   21.3997 H       1  LIG   0.0732   0.1000 
31    H12      3.0430  -39.6129   22.8177 H       1  LIG   0.0789   0.1000 
32    C15      1.6390  -40.0610   21.0880 C.3     1  LIG  -0.1196  -0.2000 
33    H13      0.6832  -39.9283   21.5242 H       1  LIG   0.0807   0.1000 
34    H14      1.5292  -40.4423   20.1061 H       1  LIG   0.0733   0.1000 
@<TRIPOS>BOND
1     2     1     ar
2     3     2     1
3     4     2     ar
4     5     4     1
5     6     4     ar
6     7     6     ar
7     8     7     1
8     9     8     1
9     10    8     1
10    11    10    1
11    12    11    ar
12    13    12    1
13    14    12    ar
14    15    14    1
15    16    14    ar
16    17    16    1
17    18    16    ar
18    19    11    ar
19    19    18    ar
20    20    19    1
21    21    1     ar
22    21    7     ar
23    21    20    1
24    22    6     1
25    23    22    1
26    24    22    1
27    25    22    1
28    26    10    2
29    27    20    1
30    28    27    1
31    29    27    1
32    30    29    1
33    31    29    1
34    32    27    1
35    32    29    1
36    33    32    1
37    34    32    1
@<TRIPOS>SUBSTRUCTURE
1   LIG    1    
 
########## Name        : 1VRT.lig
########## Description : AM1BCC_CHARGES =  -0.0002 ORIGINAL_CHARGES =  -0.0000

@<TRIPOS>MOLECULE
1VRT.lig
34    37    1     0     0    
SMALL
USER_CHARGES
@<TRIPOS>ATOM
1     N1       4.0540  -36.9310   22.2210 N.ar    1  LIG  -0.6650  -0.6200 
2     C1       4.9660  -36.2380   22.9390 C.ar    1  LIG   0.3947   0.1600 
3     H1       6.0082  -36.2811   22.6707 H       1  LIG   0.0281   0.1500 
4     C2       4.6240  -35.4500   24.0360 C.ar    1  LIG  -0.2334  -0.1500 
5     H2       5.3884  -34.9151   24.5740 H       1  LIG   0.1480   0.1500 
6     C3       3.3050  -35.3690   24.4150 C.ar    1  LIG  -0.0698  -0.1435 
7     C4       2.3460  -36.0770   23.6860 C.ar    1  LIG  -0.0398   0.1170 
8     N2       0.9890  -36.0280   24.1030 N.am    1  LIG  -0.4596  -0.5470 
9     H3       0.7643  -35.9928   25.0860 H       1  LIG   0.3311   0.3700 
10    C5      -0.1450  -36.0180   23.4080 C.2     1  LIG   0.7361   0.5438 
11    C6      -0.1190  -36.0770   21.8860 C.ar    1  LIG  -0.2550   0.0862 
12    C7      -1.1230  -35.3990   21.1890 C.ar    1  LIG  -0.0321  -0.1500 
13    H4      -1.7552  -34.6955   21.7041 H       1  LIG   0.1623   0.1500 
14    C8      -1.2960  -35.6300   19.8690 C.ar    1  LIG  -0.2723  -0.1500 
15    H5      -2.0662  -35.1073   19.3273 H       1  LIG   0.1522   0.1500 
16    C9      -0.4670  -36.5450   19.2400 C.ar    1  LIG   0.4373   0.1600 
17    H6      -0.5947  -36.7554   18.1915 H       1  LIG   0.0280   0.1500 
18    N3       0.5220  -37.2120   19.8740 N.ar    1  LIG  -0.6893  -0.6200 
19    C10      0.7040  -36.9790   21.1800 C.ar    1  LIG   0.6480   0.4100 
20    N4       1.7670  -37.6730   21.8260 N.pl3   1  LIG  -0.6924  -0.3690 
21    C11      2.7540  -36.8570   22.5840 C.ar    1  LIG   0.5805   0.4100 
22    C12      2.9040  -34.5090   25.6010 C.3     1  LIG  -0.0620   0.1435 
23    H7       2.2235  -33.7630   25.2820 H       1  LIG   0.0570   0.0000 
24    H8       2.4436  -35.1154   26.3371 H       1  LIG   0.0495   0.0000 
25    H9       3.7654  -34.0491   26.0108 H       1  LIG   0.0519   0.0000 
26    O1      -1.2400  -35.9060   23.9770 O.2     1  LIG  -0.6361  -0.5700 
27    C13      2.3440  -38.7570   21.0360 C.3     1  LIG   0.1354   0.0690 
28    H10      3.1238  -38.3754   20.4296 H       1  LIG   0.0981   0.1000 
29    C14      2.9380  -39.8900   21.8010 C.3     1  LIG  -0.1181  -0.2000 
30    H11      3.8890  -40.1268   21.3997 H       1  LIG   0.0732   0.1000 
31    H12      3.0430  -39.6129   22.8177 H       1  LIG   0.0789   0.1000 
32    C15      1.6390  -40.0610   21.0880 C.3     1  LIG  -0.1196  -0.2000 
33    H13      0.6832  -39.9283   21.5242 H       1  LIG   0.0807   0.1000 
34    H14      1.5292  -40.4423   20.1061 H       1  LIG   0.0733   0.1000 
@<TRIPOS>BOND
1     2     1     ar
2     3     2     1
3     4     2     ar
4     5     4     1
5     6     4     ar
6     7     6     ar
7     8     7     1
8     9     8     1
9     10    8     1
10    11    10    1
11    12    11    ar
12    13    12    1
13    14    12    ar
14    15    14    1
15    16    14    ar
16    17    16    1
17    18    16    ar
18    19    11    ar
19    19    18    ar
20    20    19    1
21    21    1     ar
22    21    7     ar
23    21    20    1
24    22    6     1
25    23    22    1
26    24    22    1
27    25    22    1
28    26    10    2
29    27    20    1
30    28    27    1
31    29    27    1
32    30    29    1
33    31    29    1
34    32    27    1
35    32    29    1
36    33    32    1
37    34    32    1
@<TRIPOS>SUBSTRUCTURE
1   LIG    1    
 
########## Name        : 1VRT.lig
########## Description : AM1BCC_CHARGES =  -0.0002 ORIGINAL_CHARGES =  -0.0000

@<TRIPOS>MOLECULE
1VRT.lig
34    37    1     0     0    
SMALL
USER_CHARGES
@<TRIPOS>ATOM
1     N1       4.0540  -36.9310   22.2210 N.ar    1  LIG  -0.6650  -0.6200 
2     C1       4.9660  -36.2380   22.9390 C.ar    1  LIG   0.3947   0.1600 
3     H1       6.0082  -36.2811   22.6707 H       1  LIG   0.0281   0.1500 
4     C2       4.6240  -35.4500   24.0360 C.ar    1  LIG  -0.2334  -0.1500 
5     H2       5.3884  -34.9151   24.5740 H       1  LIG   0.1480   0.1500 
6     C3       3.3050  -35.3690   24.4150 C.ar    1  LIG  -0.0698  -0.1435 
7     C4       2.3460  -36.0770   23.6860 C.ar    1  LIG  -0.0398   0.1170 
8     N2       0.9890  -36.0280   24.1030 N.am    1  LIG  -0.4596  -0.5470 
9     H3       0.7643  -35.9928   25.0860 H       1  LIG   0.3311   0.3700 
10    C5      -0.1450  -36.0180   23.4080 C.2     1  LIG   0.7361   0.5438 
11    C6      -0.1190  -36.0770   21.8860 C.ar    1  LIG  -0.2550   0.0862 
12    C7      -1.1230  -35.3990   21.1890 C.ar    1  LIG  -0.0321  -0.1500 
13    H4      -1.7552  -34.6955   21.7041 H       1  LIG   0.1623   0.1500 
14    C8      -1.2960  -35.6300   19.8690 C.ar    1  LIG  -0.2723  -0.1500 
15    H5      -2.0662  -35.1073   19.3273 H       1  LIG   0.1522   0.1500 
16    C9      -0.4670  -36.5450   19.2400 C.ar    1  LIG   0.4373   0.1600 
17    H6      -0.5947  -36.7554   18.1915 H       1  LIG   0.0280   0.1500 
18    N3       0.5220  -37.2120   19.8740 N.ar    1  LIG  -0.6893  -0.6200 
19    C10      0.7040  -36.9790   21.1800 C.ar    1  LIG   0.6480   0.4100 
20    N4       1.7670  -37.6730   21.8260 N.pl3   1  LIG  -0.6924  -0.3690 
21    C11      2.7540  -36.8570   22.5840 C.ar    1  LIG   0.5805   0.4100 
22    C12      2.9040  -34.5090   25.6010 C.3     1  LIG  -0.0620   0.1435 
23    H7       2.2235  -33.7630   25.2820 H       1  LIG   0.0570   0.0000 
24    H8       2.4436  -35.1154   26.3371 H       1  LIG   0.0495   0.0000 
25    H9       3.7654  -34.0491   26.0108 H       1  LIG   0.0519   0.0000 
26    O1      -1.2400  -35.9060   23.9770 O.2     1  LIG  -0.6361  -0.5700 
27    C13      2.3440  -38.7570   21.0360 C.3     1  LIG   0.1354   0.0690 
28    H10      3.1238  -38.3754   20.4296 H       1  LIG   0.0981   0.1000 
29    C14      2.9380  -39.8900   21.8010 C.3     1  LIG  -0.1181  -0.2000 
30    H11      3.8890  -40.1268   21.3997 H       1  LIG   0.0732   0.1000 
31    H12      3.0430  -39.6129   22.8177 H       1  LIG   0.0789   0.1000 
32    C15      1.6390  -40.0610   21.0880 C.3     1  LIG  -0.1196  -0.2000 
33    H13      0.6832  -39.9283   21.5242 H       1  LIG   0.0807   0.1000 
34    H14      1.5292  -40.4423   20.1061 H       1  LIG   0.0733   0.1000 
@<TRIPOS>BOND
1     2     1     ar
2     3     2     1
3     4     2     ar
4     5     4     1
5     6     4     ar
6     7     6     ar
7     8     7     1
8     9     8     1
9     10    8     1
10    11    10    1
11    12    11    ar
12    13    12    1
13    14    12    ar
14    15    14    1
15    16    14    ar
16    17    16    1
17    18    16    ar
18    19    11    ar
19    19    18    ar
20    20    19    1
21    21    1     ar
22    21    7     ar
23    21    20    1
24    22    6     1
25    23    22    1
26    24    22    1
27    25    22    1
28    26    10    2
29    27    20    1
30    28    27    1
31    29    27    1
32    30    29    1
33    31    29    1
34    32    27    1
35    32    29    1
36    33    32    1
37    34    32    1
@<TRIPOS>SUBSTRUCTURE
1   LIG    1    
 
########## Name        : 1VRT.lig
########## Description : AM1BCC_CHARGES =  -0.0002 ORIGINAL_CHARGES =  -0.0000

@<TRIPOS>MOLECULE
1VRT.lig
34    37    1     0     0    
SMALL
USER_CHARGES
@<TRIPOS>ATOM
1     N1       4.0540  -36.9310   22.2210 N.ar    1  LIG  -0.6650  -0.6200 
2     C1       4.9660  -36.2380   22.9390 C.ar    1  LIG   0.3947   0.1600 
3     H1       6.0082  -36.2811   22.6707 H       1  LIG   0.0281   0.1500 
4     C2       4.6240  -35.4500   24.0360 C.ar    1  LIG  -0.2334  -0.1500 
5     H2       5.3884  -34.9151   24.5740 H       1  LIG   0.1480   0.1500 
6     C3       3.3050  -35.3690   24.4150 C.ar    1  LIG  -0.0698  -0.1435 
7     C4       2.3460  -36.0770   23.6860 C.ar    1  LIG  -0.0398   0.1170 
8     N2       0.9890  -36.0280   24.1030 N.am    1  LIG  -0.4596  -0.5470 
9     H3       0.7643  -35.9928   25.0860 H       1  LIG   0.3311   0.3700 
10    C5      -0.1450  -36.0180   23.4080 C.2     1  LIG   0.7361   0.5438 
11    C6      -0.1190  -36.0770   21.8860 C.ar    1  LIG  -0.2550   0.0862 
12    C7      -1.1230  -35.3990   21.1890 C.ar    1  LIG  -0.0321  -0.1500 
13    H4      -1.7552  -34.6955   21.7041 H       1  LIG   0.1623   0.1500 
14    C8      -1.2960  -35.6300   19.8690 C.ar    1  LIG  -0.2723  -0.1500 
15    H5      -2.0662  -35.1073   19.3273 H       1  LIG   0.1522   0.1500 
16    C9      -0.4670  -36.5450   19.2400 C.ar    1  LIG   0.4373   0.1600 
17    H6      -0.5947  -36.7554   18.1915 H       1  LIG   0.0280   0.1500 
18    N3       0.5220  -37.2120   19.8740 N.ar    1  LIG  -0.6893  -0.6200 
19    C10      0.7040  -36.9790   21.1800 C.ar    1  LIG   0.6480   0.4100 
20    N4       1.7670  -37.6730   21.8260 N.pl3   1  LIG  -0.6924  -0.3690 
21    C11      2.7540  -36.8570   22.5840 C.ar    1  LIG   0.5805   0.4100 
22    C12      2.9040  -34.5090   25.6010 C.3     1  LIG  -0.0620   0.1435 
23    H7       2.2235  -33.7630   25.2820 H       1  LIG   0.0570   0.0000 
24    H8       2.4436  -35.1154   26.3371 H       1  LIG   0.0495   0.0000 
25    H9       3.7654  -34.0491   26.0108 H       1  LIG   0.0519   0.0000 
26    O1      -1.2400  -35.9060   23.9770 O.2     1  LIG  -0.6361  -0.5700 
27    C13      2.3440  -38.7570   21.0360 C.3     1  LIG   0.1354   0.0690 
28    H10      3.1238  -38.3754   20.4296 H       1  LIG   0.0981   0.1000 
29    C14      2.9380  -39.8900   21.8010 C.3     1  LIG  -0.1181  -0.2000 
30    H11      3.8890  -40.1268   21.3997 H       1  LIG   0.0732   0.1000 
31    H12      3.0430  -39.6129   22.8177 H       1  LIG   0.0789   0.1000 
32    C15      1.6390  -40.0610   21.0880 C.3     1  LIG  -0.1196  -0.2000 
33    H13      0.6832  -39.9283   21.5242 H       1  LIG   0.0807   0.1000 
34    H14      1.5292  -40.4423   20.1061 H       1  LIG   0.0733   0.1000 
@<TRIPOS>BOND
1     2     1     ar
2     3     2     1
3     4     2     ar
4     5     4     1
5     6     4     ar
6     7     6     ar
7     8     7     1
8     9     8     1
9     10    8     1
10    11    10    1
11    12    11    ar
12    13    12    1
13    14    12    ar
14    15    14    1
15    16    14    ar
16    17    16    1
17    18    16    ar
18    19    11    ar
19    19    18    ar
20    20    19    1
21    21    1     ar
22    21    7     ar
23    21    20    1
24    22    6     1
25    23    22    1
26    24    22    1
27    25    22    1
28    26    10    2
29    27    20    1
30    28    27    1
31    29    27    1
32    30    29    1
33    31    29    1
34    32    27    1
35    32    29    1
36    33    32    1
37    34    32    1
@<TRIPOS>SUBSTRUCTURE
1   LIG    1    
 
########## Name        : 1VRT.lig
########## Description : AM1BCC_CHARGES =  -0.0002 ORIGINAL_CHARGES =  -0.0000

@<TRIPOS>MOLECULE
1VRT.lig
34    37    1     0     0    
SMALL
USER_CHARGES
@<TRIPOS>ATOM
1     N1       4.0540  -36.9310   22.2210 N.ar    1  LIG  -0.6650  -0.6200 
2     C1       4.9660  -36.2380   22.9390 C.ar    1  LIG   0.3947   0.1600 
3     H1       6.0082  -36.2811   22.6707 H       1  LIG   0.0281   0.1500 
4     C2       4.6240  -35.4500   24.0360 C.ar    1  LIG  -0.2334  -0.1500 
5     H2       5.3884  -34.9151   24.5740 H       1  LIG   0.1480   0.1500 
6     C3       3.3050  -35.3690   24.4150 C.ar    1  LIG  -0.0698  -0.1435 
7     C4       2.3460  -36.0770   23.6860 C.ar    1  LIG  -0.0398   0.1170 
8     N2       0.9890  -36.0280   24.1030 N.am    1  LIG  -0.4596  -0.5470 
9     H3       0.7643  -35.9928   25.0860 H       1  LIG   0.3311   0.3700 
10    C5      -0.1450  -36.0180   23.4080 C.2     1  LIG   0.7361   0.5438 
11    C6      -0.1190  -36.0770   21.8860 C.ar    1  LIG  -0.2550   0.0862 
12    C7      -1.1230  -35.3990   21.1890 C.ar    1  LIG  -0.0321  -0.1500 
13    H4      -1.7552  -34.6955   21.7041 H       1  LIG   0.1623   0.1500 
14    C8      -1.2960  -35.6300   19.8690 C.ar    1  LIG  -0.2723  -0.1500 
15    H5      -2.0662  -35.1073   19.3273 H       1  LIG   0.1522   0.1500 
16    C9      -0.4670  -36.5450   19.2400 C.ar    1  LIG   0.4373   0.1600 
17    H6      -0.5947  -36.7554   18.1915 H       1  LIG   0.0280   0.1500 
18    N3       0.5220  -37.2120   19.8740 N.ar    1  LIG  -0.6893  -0.6200 
19    C10      0.7040  -36.9790   21.1800 C.ar    1  LIG   0.6480   0.4100 
20    N4       1.7670  -37.6730   21.8260 N.pl3   1  LIG  -0.6924  -0.3690 
21    C11      2.7540  -36.8570   22.5840 C.ar    1  LIG   0.5805   0.4100 
22    C12      2.9040  -34.5090   25.6010 C.3     1  LIG  -0.0620   0.1435 
23    H7       2.2235  -33.7630   25.2820 H       1  LIG   0.0570   0.0000 
24    H8       2.4436  -35.1154   26.3371 H       1  LIG   0.0495   0.0000 
25    H9       3.7654  -34.0491   26.0108 H       1  LIG   0.0519   0.0000 
26    O1      -1.2400  -35.9060   23.9770 O.2     1  LIG  -0.6361  -0.5700 
27    C13      2.3440  -38.7570   21.0360 C.3     1  LIG   0.1354   0.0690 
28    H10      3.1238  -38.3754   20.4296 H       1  LIG   0.0981   0.1000 
29    C14      2.9380  -39.8900   21.8010 C.3     1  LIG  -0.1181  -0.2000 
30    H11      3.8890  -40.1268   21.3997 H       1  LIG   0.0732   0.1000 
31    H12      3.0430  -39.6129   22.8177 H       1  LIG   0.0789   0.1000 
32    C15      1.6390  -40.0610   21.0880 C.3     1  LIG  -0.1196  -0.2000 
33    H13      0.6832  -39.9283   21.5242 H       1  LIG   0.0807   0.1000 
34    H14      1.5292  -40.4423   20.1061 H       1  LIG   0.0733   0.1000 
@<TRIPOS>BOND
1     2     1     ar
2     3     2     1
3     4     2     ar
4     5     4     1
5     6     4     ar
6     7     6     ar
7     8     7     1
8     9     8     1
9     10    8     1
10    11    10    1
11    12    11    ar
12    13    12    1
13    14    12    ar
14    15    14    1
15    16    14    ar
16    17    16    1
17    18    16    ar
18    19    11    ar
19    19    18    ar
20    20    19    1
21    21    1     ar
22    21    7     ar
23    21    20    1
24    22    6     1
25    23    22    1
26    24    22    1
27    25    22    1
28    26    10    2
29    27    20    1
30    28    27    1
31    29    27    1
32    30    29    1
33    31    29    1
34    32    27    1
35    32    29    1
36    33    32    1
37    34    32    1
@<TRIPOS>SUBSTRUCTURE
1   LIG    1    
 
########## Name        : 1VRT.lig
########## Description : AM1BCC_CHARGES =  -0.0002 ORIGINAL_CHARGES =  -0.0000

@<TRIPOS>MOLECULE
1VRT.lig
34    37    1     0     0    
SMALL
USER_CHARGES
@<TRIPOS>ATOM
1     N1       4.0540  -36.9310   22.2210 N.ar    1  LIG  -0.6650  -0.6200 
2     C1       4.9660  -36.2380   22.9390 C.ar    1  LIG   0.3947   0.1600 
3     H1       6.0082  -36.2811   22.6707 H       1  LIG   0.0281   0.1500 
4     C2       4.6240  -35.4500   24.0360 C.ar    1  LIG  -0.2334  -0.1500 
5     H2       5.3884  -34.9151   24.5740 H       1  LIG   0.1480   0.1500 
6     C3       3.3050  -35.3690   24.4150 C.ar    1  LIG  -0.0698  -0.1435 
7     C4       2.3460  -36.0770   23.6860 C.ar    1  LIG  -0.0398   0.1170 
8     N2       0.9890  -36.0280   24.1030 N.am    1  LIG  -0.4596  -0.5470 
9     H3       0.7643  -35.9928   25.0860 H       1  LIG   0.3311   0.3700 
10    C5      -0.1450  -36.0180   23.4080 C.2     1  LIG   0.7361   0.5438 
11    C6      -0.1190  -36.0770   21.8860 C.ar    1  LIG  -0.2550   0.0862 
12    C7      -1.1230  -35.3990   21.1890 C.ar    1  LIG  -0.0321  -0.1500 
13    H4      -1.7552  -34.6955   21.7041 H       1  LIG   0.1623   0.1500 
14    C8      -1.2960  -35.6300   19.8690 C.ar    1  LIG  -0.2723  -0.1500 
15    H5      -2.0662  -35.1073   19.3273 H       1  LIG   0.1522   0.1500 
16    C9      -0.4670  -36.5450   19.2400 C.ar    1  LIG   0.4373   0.1600 
17    H6      -0.5947  -36.7554   18.1915 H       1  LIG   0.0280   0.1500 
18    N3       0.5220  -37.2120   19.8740 N.ar    1  LIG  -0.6893  -0.6200 
19    C10      0.7040  -36.9790   21.1800 C.ar    1  LIG   0.6480   0.4100 
20    N4       1.7670  -37.6730   21.8260 N.pl3   1  LIG  -0.6924  -0.3690 
21    C11      2.7540  -36.8570   22.5840 C.ar    1  LIG   0.5805   0.4100 
22    C12      2.9040  -34.5090   25.6010 C.3     1  LIG  -0.0620   0.1435 
23    H7       2.2235  -33.7630   25.2820 H       1  LIG   0.0570   0.0000 
24    H8       2.4436  -35.1154   26.3371 H       1  LIG   0.0495   0.0000 
25    H9       3.7654  -34.0491   26.0108 H       1  LIG   0.0519   0.0000 
26    O1      -1.2400  -35.9060   23.9770 O.2     1  LIG  -0.6361  -0.5700 
27    C13      2.3440  -38.7570   21.0360 C.3     1  LIG   0.1354   0.0690 
28    H10      3.1238  -38.3754   20.4296 H       1  LIG   0.0981   0.1000 
29    C14      2.9380  -39.8900   21.8010 C.3     1  LIG  -0.1181  -0.2000 
30    H11      3.8890  -40.1268   21.3997 H       1  LIG   0.0732   0.1000 
31    H12      3.0430  -39.6129   22.8177 H       1  LIG   0.0789   0.1000 
32    C15      1.6390  -40.0610   21.0880 C.3     1  LIG  -0.1196  -0.2000 
33    H13      0.6832  -39.9283   21.5242 H       1  LIG   0.0807   0.1000 
34    H14      1.5292  -40.4423   20.1061 H       1  LIG   0.0733   0.1000 
@<TRIPOS>BOND
1     2     1     ar
2     3     2     1
3     4     2     ar
4     5     4     1
5     6     4     ar
6     7     6     ar
7     8     7     1
8     9     8     1
9     10    8     1
10    11    10    1
11    12    11    ar
12    13    12    1
13    14    12    ar
14    15    14    1
15    16    14    ar
16    17    16    1
17    18    16    ar
18    19    11    ar
19    19    18    ar
20    20    19    1
21    21    1     ar
22    21    7     ar
23    21    20    1
24    22    6     1
25    23    22    1
26    24    22    1
27    25    22    1
28    26    10    2
29    27    20    1
30    28    27    1
31    29    27    1
32    30    29    1
33    31    29    1
34    32    27    1
35    32    29    1
36    33    32    1
37    34    32    1
@<TRIPOS>SUBSTRUCTURE
1   LIG    1    
 
########## Name        : 1VRT.lig
########## Description : AM1BCC_CHARGES =  -0.0002 ORIGINAL_CHARGES =  -0.0000

@<TRIPOS>MOLECULE
1VRT.lig
34    37    1     0     0    
SMALL
USER_CHARGES
@<TRIPOS>ATOM
1     N1       4.0540  -36.9310   22.2210 N.ar    1  LIG  -0.6650  -0.6200 
2     C1       4.9660  -36.2380   22.9390 C.ar    1  LIG   0.3947   0.1600 
3     H1       6.0082  -36.2811   22.6707 H       1  LIG   0.0281   0.1500 
4     C2       4.6240  -35.4500   24.0360 C.ar    1  LIG  -0.2334  -0.1500 
5     H2       5.3884  -34.9151   24.5740 H       1  LIG   0.1480   0.1500 
6     C3       3.3050  -35.3690   24.4150 C.ar    1  LIG  -0.0698  -0.1435 
7     C4       2.3460  -36.0770   23.6860 C.ar    1  LIG  -0.0398   0.1170 
8     N2       0.9890  -36.0280   24.1030 N.am    1  LIG  -0.4596  -0.5470 
9     H3       0.7643  -35.9928   25.0860 H       1  LIG   0.3311   0.3700 
10    C5      -0.1450  -36.0180   23.4080 C.2     1  LIG   0.7361   0.5438 
11    C6      -0.1190  -36.0770   21.8860 C.ar    1  LIG  -0.2550   0.0862 
12    C7      -1.1230  -35.3990   21.1890 C.ar    1  LIG  -0.0321  -0.1500 
13    H4      -1.7552  -34.6955   21.7041 H       1  LIG   0.1623   0.1500 
14    C8      -1.2960  -35.6300   19.8690 C.ar    1  LIG  -0.2723  -0.1500 
15    H5      -2.0662  -35.1073   19.3273 H       1  LIG   0.1522   0.1500 
16    C9      -0.4670  -36.5450   19.2400 C.ar    1  LIG   0.4373   0.1600 
17    H6      -0.5947  -36.7554   18.1915 H       1  LIG   0.0280   0.1500 
18    N3       0.5220  -37.2120   19.8740 N.ar    1  LIG  -0.6893  -0.6200 
19    C10      0.7040  -36.9790   21.1800 C.ar    1  LIG   0.6480   0.4100 
20    N4       1.7670  -37.6730   21.8260 N.pl3   1  LIG  -0.6924  -0.3690 
21    C11      2.7540  -36.8570   22.5840 C.ar    1  LIG   0.5805   0.4100 
22    C12      2.9040  -34.5090   25.6010 C.3     1  LIG  -0.0620   0.1435 
23    H7       2.2235  -33.7630   25.2820 H       1  LIG   0.0570   0.0000 
24    H8       2.4436  -35.1154   26.3371 H       1  LIG   0.0495   0.0000 
25    H9       3.7654  -34.0491   26.0108 H       1  LIG   0.0519   0.0000 
26    O1      -1.2400  -35.9060   23.9770 O.2     1  LIG  -0.6361  -0.5700 
27    C13      2.3440  -38.7570   21.0360 C.3     1  LIG   0.1354   0.0690 
28    H10      3.1238  -38.3754   20.4296 H       1  LIG   0.0981   0.1000 
29    C14      2.9380  -39.8900   21.8010 C.3     1  LIG  -0.1181  -0.2000 
30    H11      3.8890  -40.1268   21.3997 H       1  LIG   0.0732   0.1000 
31    H12      3.0430  -39.6129   22.8177 H       1  LIG   0.0789   0.1000 
32    C15      1.6390  -40.0610   21.0880 C.3     1  LIG  -0.1196  -0.2000 
33    H13      0.6832  -39.9283   21.5242 H       1  LIG   0.0807   0.1000 
34    H14      1.5292  -40.4423   20.1061 H       1  LIG   0.0733   0.1000 
@<TRIPOS>BOND
1     2     1     ar
2     3     2     1
3     4     2     ar
4     5     4     1
5     6     4     ar
6     7     6     ar
7     8     7     1
8     9     8     1
9     10    8     1
10    11    10    1
11    12    11    ar
12    13    12    1
13    14    12    ar
14    15    14    1
15    16    14    ar
16    17    16    1
17    18    16    ar
18    19    11    ar
19    19    18    ar
20    20    19    1
21    21    1     ar
22    21    7     ar
23    21    20    1
24    22    6     1
25    23    22    1
26    24    22    1
27    25    22    1
28    26    10    2
29    27    20    1
30    28    27    1
31    29    27    1
32    30    29    1
33    31    29    1
34    32    27    1
35    32    29    1
36    33    32    1
37    34    32    1
@<TRIPOS>SUBSTRUCTURE
1   LIG    1    
 
########## Name        : 1VRT.lig
########## Description : AM1BCC_CHARGES =  -0.0002 ORIGINAL_CHARGES =  -0.0000

@<TRIPOS>MOLECULE
1VRT.lig
34    37    1     0     0    
SMALL
USER_CHARGES
@<TRIPOS>ATOM
1     N1       4.0540  -36.9310   22.2210 N.ar    1  LIG  -0.6650  -0.6200 
2     C1       4.9660  -36.2380   22.9390 C.ar    1  LIG   0.3947   0.1600 
3     H1       6.0082  -36.2811   22.6707 H       1  LIG   0.0281   0.1500 
4     C2       4.6240  -35.4500   24.0360 C.ar    1  LIG  -0.2334  -0.1500 
5     H2       5.3884  -34.9151   24.5740 H       1  LIG   0.1480   0.1500 
6     C3       3.3050  -35.3690   24.4150 C.ar    1  LIG  -0.0698  -0.1435 
7     C4       2.3460  -36.0770   23.6860 C.ar    1  LIG  -0.0398   0.1170 
8     N2       0.9890  -36.0280   24.1030 N.am    1  LIG  -0.4596  -0.5470 
9     H3       0.7643  -35.9928   25.0860 H       1  LIG   0.3311   0.3700 
10    C5      -0.1450  -36.0180   23.4080 C.2     1  LIG   0.7361   0.5438 
11    C6      -0.1190  -36.0770   21.8860 C.ar    1  LIG  -0.2550   0.0862 
12    C7      -1.1230  -35.3990   21.1890 C.ar    1  LIG  -0.0321  -0.1500 
13    H4      -1.7552  -34.6955   21.7041 H       1  LIG   0.1623   0.1500 
14    C8      -1.2960  -35.6300   19.8690 C.ar    1  LIG  -0.2723  -0.1500 
15    H5      -2.0662  -35.1073   19.3273 H       1  LIG   0.1522   0.1500 
16    C9      -0.4670  -36.5450   19.2400 C.ar    1  LIG   0.4373   0.1600 
17    H6      -0.5947  -36.7554   18.1915 H       1  LIG   0.0280   0.1500 
18    N3       0.5220  -37.2120   19.8740 N.ar    1  LIG  -0.6893  -0.6200 
19    C10      0.7040  -36.9790   21.1800 C.ar    1  LIG   0.6480   0.4100 
20    N4       1.7670  -37.6730   21.8260 N.pl3   1  LIG  -0.6924  -0.3690 
21    C11      2.7540  -36.8570   22.5840 C.ar    1  LIG   0.5805   0.4100 
22    C12      2.9040  -34.5090   25.6010 C.3     1  LIG  -0.0620   0.1435 
23    H7       2.2235  -33.7630   25.2820 H       1  LIG   0.0570   0.0000 
24    H8       2.4436  -35.1154   26.3371 H       1  LIG   0.0495   0.0000 
25    H9       3.7654  -34.0491   26.0108 H       1  LIG   0.0519   0.0000 
26    O1      -1.2400  -35.9060   23.9770 O.2     1  LIG  -0.6361  -0.5700 
27    C13      2.3440  -38.7570   21.0360 C.3     1  LIG   0.1354   0.0690 
28    H10      3.1238  -38.3754   20.4296 H       1  LIG   0.0981   0.1000 
29    C14      2.9380  -39.8900   21.8010 C.3     1  LIG  -0.1181  -0.2000 
30    H11      3.8890  -40.1268   21.3997 H       1  LIG   0.0732   0.1000 
31    H12      3.0430  -39.6129   22.8177 H       1  LIG   0.0789   0.1000 
32    C15      1.6390  -40.0610   21.0880 C.3     1  LIG  -0.1196  -0.2000 
33    H13      0.6832  -39.9283   21.5242 H       1  LIG   0.0807   0.1000 
34    H14      1.5292  -40.4423   20.1061 H       1  LIG   0.0733   0.1000 
@<TRIPOS>BOND
1     2     1     ar
2     3     2     1
3     4     2     ar
4     5     4     1
5     6     4     ar
6     7     6     ar
7     8     7     1
8     9     8     1
9     10    8     1
10    11    10    1
11    12    11    ar
12    13    12    1
13    14    12    ar
14    15    14    1
15    16    14    ar
16    17    16    1
17    18    16    ar
18    19    11    ar
19    19    18    ar
20    20    19    1
21    21    1     ar
22    21    7     ar
23    21    20    1
24    22    6     1
25    23    22    1
26    24    22    1
27    25    22    1
28    26    10    2
29    27    20    1
30    28    27    1
31    29    27    1
32    30    29    1
33    31    29    1
34    32    27    1
35    32    29    1
36    33    32    1
37    34    32    1
@<TRIPOS>SUBSTRUCTURE
1   LIG    1    
 
########## Name        : 1VRT.lig
########## Description : AM1BCC_CHARGES =  -0.0002 ORIGINAL_CHARGES =  -0.0000

@<TRIPOS>MOLECULE
1VRT.lig
34    37    1     0     0    
SMALL
USER_CHARGES
@<TRIPOS>ATOM
1     N1       4.0540  -36.9310   22.2210 N.ar    1  LIG  -0.6650  -0.6200 
2     C1       4.9660  -36.2380   22.9390 C.ar    1  LIG   0.3947   0.1600 
3     H1       6.0082  -36.2811   22.6707 H       1  LIG   0.0281   0.1500 
4     C2       4.6240  -35.4500   24.0360 C.ar    1  LIG  -0.2334  -0.1500 
5     H2       5.3884  -34.9151   24.5740 H       1  LIG   0.1480   0.1500 
6     C3       3.3050  -35.3690   24.4150 C.ar    1  LIG  -0.0698  -0.1435 
7     C4       2.3460  -36.0770   23.6860 C.ar    1  LIG  -0.0398   0.1170 
8     N2       0.9890  -36.0280   24.1030 N.am    1  LIG  -0.4596  -0.5470 
9     H3       0.7643  -35.9928   25.0860 H       1  LIG   0.3311   0.3700 
10    C5      -0.1450  -36.0180   23.4080 C.2     1  LIG   0.7361   0.5438 
11    C6      -0.1190  -36.0770   21.8860 C.ar    1  LIG  -0.2550   0.0862 
12    C7      -1.1230  -35.3990   21.1890 C.ar    1  LIG  -0.0321  -0.1500 
13    H4      -1.7552  -34.6955   21.7041 H       1  LIG   0.1623   0.1500 
14    C8      -1.2960  -35.6300   19.8690 C.ar    1  LIG  -0.2723  -0.1500 
15    H5      -2.0662  -35.1073   19.3273 H       1  LIG   0.1522   0.1500 
16    C9      -0.4670  -36.5450   19.2400 C.ar    1  LIG   0.4373   0.1600 
17    H6      -0.5947  -36.7554   18.1915 H       1  LIG   0.0280   0.1500 
18    N3       0.5220  -37.2120   19.8740 N.ar    1  LIG  -0.6893  -0.6200 
19    C10      0.7040  -36.9790   21.1800 C.ar    1  LIG   0.6480   0.4100 
20    N4       1.7670  -37.6730   21.8260 N.pl3   1  LIG  -0.6924  -0.3690 
21    C11      2.7540  -36.8570   22.5840 C.ar    1  LIG   0.5805   0.4100 
22    C12      2.9040  -34.5090   25.6010 C.3     1  LIG  -0.0620   0.1435 
23    H7       2.2235  -33.7630   25.2820 H       1  LIG   0.0570   0.0000 
24    H8       2.4436  -35.1154   26.3371 H       1  LIG   0.0495   0.0000 
25    H9       3.7654  -34.0491   26.0108 H       1  LIG   0.0519   0.0000 
26    O1      -1.2400  -35.9060   23.9770 O.2     1  LIG  -0.6361  -0.5700 
27    C13      2.3440  -38.7570   21.0360 C.3     1  LIG   0.1354   0.0690 
28    H10      3.1238  -38.3754   20.4296 H       1  LIG   0.0981   0.1000 
29    C14      2.9380  -39.8900   21.8010 C.3     1  LIG  -0.1181  -0.2000 
30    H11      3.8890  -40.1268   21.3997 H       1  LIG   0.0732   0.1000 
31    H12      3.0430  -39.6129   22.8177 H       1  LIG   0.0789   0.1000 
32    C15      1.6390  -40.0610   21.0880 C.3     1  LIG  -0.1196  -0.2000 
33    H13      0.6832  -39.9283   21.5242 H       1  LIG   0.0807   0.1000 
34    H14      1.5292  -40.4423   20.1061 H       1  LIG   0.0733   0.1000 
@<TRIPOS>BOND
1     2     1     ar
2     3     2     1
3     4     2     ar
4     5     4     1
5     6     4     ar
6     7     6     ar
7     8     7     1
8     9     8     1
9     10    8     1
10    11    10    1
11    12    11    ar
12    13    12    1
13    14    12    ar
14    15    14    1
15    16    14    ar
16    17    16    1
17    18    16    ar
18    19    11    ar
19    19    18    ar
20    20    19    1
21    21    1     ar
22    21    7     ar
23    21    20    1
24    22    6     1
25    23    22    1
26    24    22    1
27    25    22    1
28    26    10    2
29    27    20    1
30    28    27    1
31    29    27    1
32    30    29    1
33    31    29    1
34    32    27    1
35    32    29    1
36    33    32    1
37    34    32    1
@<TRIPOS>SUBSTRUCTURE
1   LIG    1    
 
########## Name        : 1VRT.lig
########## Description : AM1BCC_CHARGES =  -0.0002 ORIGINAL_CHARGES =  -0.0000

@<TRIPOS>MOLECULE
1VRT.lig
34    37    1     0     0    
SMALL
USER_CHARGES
@<TRIPOS>ATOM
1     N1       4.0540  -36.9310   22.2210 N.ar    1  LIG  -0.6650  -0.6200 
2     C1       4.9660  -36.2380   22.9390 C.ar    1  LIG   0.3947   0.1600 
3     H1       6.0082  -36.2811   22.6707 H       1  LIG   0.0281   0.1500 
4     C2       4.6240  -35.4500   24.0360 C.ar    1  LIG  -0.2334  -0.1500 
5     H2       5.3884  -34.9151   24.5740 H       1  LIG   0.1480   0.1500 
6     C3       3.3050  -35.3690   24.4150 C.ar    1  LIG  -0.0698  -0.1435 
7     C4       2.3460  -36.0770   23.6860 C.ar    1  LIG  -0.0398   0.1170 
8     N2       0.9890  -36.0280   24.1030 N.am    1  LIG  -0.4596  -0.5470 
9     H3       0.7643  -35.9928   25.0860 H       1  LIG   0.3311   0.3700 
10    C5      -0.1450  -36.0180   23.4080 C.2     1  LIG   0.7361   0.5438 
11    C6      -0.1190  -36.0770   21.8860 C.ar    1  LIG  -0.2550   0.0862 
12    C7      -1.1230  -35.3990   21.1890 C.ar    1  LIG  -0.0321  -0.1500 
13    H4      -1.7552  -34.6955   21.7041 H       1  LIG   0.1623   0.1500 
14    C8      -1.2960  -35.6300   19.8690 C.ar    1  LIG  -0.2723  -0.1500 
15    H5      -2.0662  -35.1073   19.3273 H       1  LIG   0.1522   0.1500 
16    C9      -0.4670  -36.5450   19.2400 C.ar    1  LIG   0.4373   0.1600 
17    H6      -0.5947  -36.7554   18.1915 H       1  LIG   0.0280   0.1500 
18    N3       0.5220  -37.2120   19.8740 N.ar    1  LIG  -0.6893  -0.6200 
19    C10      0.7040  -36.9790   21.1800 C.ar    1  LIG   0.6480   0.4100 
20    N4       1.7670  -37.6730   21.8260 N.pl3   1  LIG  -0.6924  -0.3690 
21    C11      2.7540  -36.8570   22.5840 C.ar    1  LIG   0.5805   0.4100 
22    C12      2.9040  -34.5090   25.6010 C.3     1  LIG  -0.0620   0.1435 
23    H7       2.2235  -33.7630   25.2820 H       1  LIG   0.0570   0.0000 
24    H8       2.4436  -35.1154   26.3371 H       1  LIG   0.0495   0.0000 
25    H9       3.7654  -34.0491   26.0108 H       1  LIG   0.0519   0.0000 
26    O1      -1.2400  -35.9060   23.9770 O.2     1  LIG  -0.6361  -0.5700 
27    C13      2.3440  -38.7570   21.0360 C.3     1  LIG   0.1354   0.0690 
28    H10      3.1238  -38.3754   20.4296 H       1  LIG   0.0981   0.1000 
29    C14      2.9380  -39.8900   21.8010 C.3     1  LIG  -0.1181  -0.2000 
30    H11      3.8890  -40.1268   21.3997 H       1  LIG   0.0732   0.1000 
31    H12      3.0430  -39.6129   22.8177 H       1  LIG   0.0789   0.1000 
32    C15      1.6390  -40.0610   21.0880 C.3     1  LIG  -0.1196  -0.2000 
33    H13      0.6832  -39.9283   21.5242 H       1  LIG   0.0807   0.1000 
34    H14      1.5292  -40.4423   20.1061 H       1  LIG   0.0733   0.1000 
@<TRIPOS>BOND
1     2     1     ar
2     3     2     1
3     4     2     ar
4     5     4     1
5     6     4     ar
6     7     6     ar
7     8     7     1
8     9     8     1
9     10    8     1
10    11    10    1
11    12    11    ar
12    13    12    1
13    14    12    ar
14    15    14    1
15    16    14    ar
16    17    16    1
17    18    16    ar
18    19    11    ar
19    19    18    ar
20    20    19    1
21    21    1     ar
22    21    7     ar
23    21    20    1
24    22    6     1
25    23    22    1
26    24    22    1
27    25    22    1
28    26    10    2
29    27    20    1
30    28    27    1
31    29    27    1
32    30    29    1
33    31    29    1
34    32    27    1
35    32    29    1
36    33    32    1
37    34    32    1
@<TRIPOS>SUBSTRUCTURE
1   LIG    1    
 
########## Name        : 1VRT.lig
########## Description : AM1BCC_CHARGES =  -0.0002 ORIGINAL_CHARGES =  -0.0000

@<TRIPOS>MOLECULE
1VRT.lig
34    37    1     0     0    
SMALL
USER_CHARGES
@<TRIPOS>ATOM
1     N1       4.0540  -36.9310   22.2210 N.ar    1  LIG  -0.6650  -0.6200 
2     C1       4.9660  -36.2380   22.9390 C.ar    1  LIG   0.3947   0.1600 
3     H1       6.0082  -36.2811   22.6707 H       1  LIG   0.0281   0.1500 
4     C2       4.6240  -35.4500   24.0360 C.ar    1  LIG  -0.2334  -0.1500 
5     H2       5.3884  -34.9151   24.5740 H       1  LIG   0.1480   0.1500 
6     C3       3.3050  -35.3690   24.4150 C.ar    1  LIG  -0.0698  -0.1435 
7     C4       2.3460  -36.0770   23.6860 C.ar    1  LIG  -0.0398   0.1170 
8     N2       0.9890  -36.0280   24.1030 N.am    1  LIG  -0.4596  -0.5470 
9     H3       0.7643  -35.9928   25.0860 H       1  LIG   0.3311   0.3700 
10    C5      -0.1450  -36.0180   23.4080 C.2     1  LIG   0.7361   0.5438 
11    C6      -0.1190  -36.0770   21.8860 C.ar    1  LIG  -0.2550   0.0862 
12    C7      -1.1230  -35.3990   21.1890 C.ar    1  LIG  -0.0321  -0.1500 
13    H4      -1.7552  -34.6955   21.7041 H       1  LIG   0.1623   0.1500 
14    C8      -1.2960  -35.6300   19.8690 C.ar    1  LIG  -0.2723  -0.1500 
15    H5      -2.0662  -35.1073   19.3273 H       1  LIG   0.1522   0.1500 
16    C9      -0.4670  -36.5450   19.2400 C.ar    1  LIG   0.4373   0.1600 
17    H6      -0.5947  -36.7554   18.1915 H       1  LIG   0.0280   0.1500 
18    N3       0.5220  -37.2120   19.8740 N.ar    1  LIG  -0.6893  -0.6200 
19    C10      0.7040  -36.9790   21.1800 C.ar    1  LIG   0.6480   0.4100 
20    N4       1.7670  -37.6730   21.8260 N.pl3   1  LIG  -0.6924  -0.3690 
21    C11      2.7540  -36.8570   22.5840 C.ar    1  LIG   0.5805   0.4100 
22    C12      2.9040  -34.5090   25.6010 C.3     1  LIG  -0.0620   0.1435 
23    H7       2.2235  -33.7630   25.2820 H       1  LIG   0.0570   0.0000 
24    H8       2.4436  -35.1154   26.3371 H       1  LIG   0.0495   0.0000 
25    H9       3.7654  -34.0491   26.0108 H       1  LIG   0.0519   0.0000 
26    O1      -1.2400  -35.9060   23.9770 O.2     1  LIG  -0.6361  -0.5700 
27    C13      2.3440  -38.7570   21.0360 C.3     1  LIG   0.1354   0.0690 
28    H10      3.1238  -38.3754   20.4296 H       1  LIG   0.0981   0.1000 
29    C14      2.9380  -39.8900   21.8010 C.3     1  LIG  -0.1181  -0.2000 
30    H11      3.8890  -40.1268   21.3997 H       1  LIG   0.0732   0.1000 
31    H12      3.0430  -39.6129   22.8177 H       1  LIG   0.0789   0.1000 
32    C15      1.6390  -40.0610   21.0880 C.3     1  LIG  -0.1196  -0.2000 
33    H13      0.6832  -39.9283   21.5242 H       1  LIG   0.0807   0.1000 
34    H14      1.5292  -40.4423   20.1061 H       1  LIG   0.0733   0.1000 
@<TRIPOS>BOND
1     2     1     ar
2     3     2     1
3     4     2     ar
4     5     4     1
5     6     4     ar
6     7     6     ar
7     8     7     1
8     9     8     1
9     10    8     1
10    11    10    1
11    12    11    ar
12    13    12    1
13    14    12    ar
14    15    14    1
15    16    14    ar
16    17    16    1
17    18    16    ar
18    19    11    ar
19    19    18    ar
20    20    19    1
21    21    1     ar
22    21    7     ar
23    21    20    1
24    22    6     1
25    23    22    1
26    24    22    1
27    25    22    1
28    26    10    2
29    27    20    1
30    28    27    1
31    29    27    1
32    30    29    1
33    31    29    1
34    32    27    1
35    32    29    1
36    33    32    1
37    34    32    1
@<TRIPOS>SUBSTRUCTURE
1   LIG    1    
 
########## Name        : 1VRT.lig
########## Description : AM1BCC_CHARGES =  -0.0002 ORIGINAL_CHARGES =  -0.0000

@<TRIPOS>MOLECULE
1VRT.lig
34    37    1     0     0    
SMALL
USER_CHARGES
@<TRIPOS>ATOM
1     N1       4.0540  -36.9310   22.2210 N.ar    1  LIG  -0.6650  -0.6200 
2     C1       4.9660  -36.2380   22.9390 C.ar    1  LIG   0.3947   0.1600 
3     H1       6.0082  -36.2811   22.6707 H       1  LIG   0.0281   0.1500 
4     C2       4.6240  -35.4500   24.0360 C.ar    1  LIG  -0.2334  -0.1500 
5     H2       5.3884  -34.9151   24.5740 H       1  LIG   0.1480   0.1500 
6     C3       3.3050  -35.3690   24.4150 C.ar    1  LIG  -0.0698  -0.1435 
7     C4       2.3460  -36.0770   23.6860 C.ar    1  LIG  -0.0398   0.1170 
8     N2       0.9890  -36.0280   24.1030 N.am    1  LIG  -0.4596  -0.5470 
9     H3       0.7643  -35.9928   25.0860 H       1  LIG   0.3311   0.3700 
10    C5      -0.1450  -36.0180   23.4080 C.2     1  LIG   0.7361   0.5438 
11    C6      -0.1190  -36.0770   21.8860 C.ar    1  LIG  -0.2550   0.0862 
12    C7      -1.1230  -35.3990   21.1890 C.ar    1  LIG  -0.0321  -0.1500 
13    H4      -1.7552  -34.6955   21.7041 H       1  LIG   0.1623   0.1500 
14    C8      -1.2960  -35.6300   19.8690 C.ar    1  LIG  -0.2723  -0.1500 
15    H5      -2.0662  -35.1073   19.3273 H       1  LIG   0.1522   0.1500 
16    C9      -0.4670  -36.5450   19.2400 C.ar    1  LIG   0.4373   0.1600 
17    H6      -0.5947  -36.7554   18.1915 H       1  LIG   0.0280   0.1500 
18    N3       0.5220  -37.2120   19.8740 N.ar    1  LIG  -0.6893  -0.6200 
19    C10      0.7040  -36.9790   21.1800 C.ar    1  LIG   0.6480   0.4100 
20    N4       1.7670  -37.6730   21.8260 N.pl3   1  LIG  -0.6924  -0.3690 
21    C11      2.7540  -36.8570   22.5840 C.ar    1  LIG   0.5805   0.4100 
22    C12      2.9040  -34.5090   25.6010 C.3     1  LIG  -0.0620   0.1435 
23    H7       2.2235  -33.7630   25.2820 H       1  LIG   0.0570   0.0000 
24    H8       2.4436  -35.1154   26.3371 H       1  LIG   0.0495   0.0000 
25    H9       3.7654  -34.0491   26.0108 H       1  LIG   0.0519   0.0000 
26    O1      -1.2400  -35.9060   23.9770 O.2     1  LIG  -0.6361  -0.5700 
27    C13      2.3440  -38.7570   21.0360 C.3     1  LIG   0.1354   0.0690 
28    H10      3.1238  -38.3754   20.4296 H       1  LIG   0.0981   0.1000 
29    C14      2.9380  -39.8900   21.8010 C.3     1  LIG  -0.1181  -0.2000 
30    H11      3.8890  -40.1268   21.3997 H       1  LIG   0.0732   0.1000 
31    H12      3.0430  -39.6129   22.8177 H       1  LIG   0.0789   0.1000 
32    C15      1.6390  -40.0610   21.0880 C.3     1  LIG  -0.1196  -0.2000 
33    H13      0.6832  -39.9283   21.5242 H       1  LIG   0.0807   0.1000 
34    H14      1.5292  -40.4423   20.1061 H       1  LIG   0.0733   0.1000 
@<TRIPOS>BOND
1     2     1     ar
2     3     2     1
3     4     2     ar
4     5     4     1
5     6     4     ar
6     7     6     ar
7     8     7     1
8     9     8     1
9     10    8     1
10    11    10    1
11    12    11    ar
12    13    12    1
13    14    12    ar
14    15    14    1
15    16    14    ar
16    17    16    1
17    18    16    ar
18    19    11    ar
19    19    18    ar
20    20    19    1
21    21    1     ar
22    21    7     ar
23    21    20    1
24    22    6     1
25    23    22    1
26    24    22    1
27    25    22    1
28    26    10    2
29    27    20    1
30    28    27    1
31    29    27    1
32    30    29    1
33    31    29    1
34    32    27    1
35    32    29    1
36    33    32    1
37    34    32    1
@<TRIPOS>SUBSTRUCTURE
1   LIG    1    
 
########## Name        : 1VRT.lig
########## Description : AM1BCC_CHARGES =  -0.0002 ORIGINAL_CHARGES =  -0.0000

@<TRIPOS>MOLECULE
1VRT.lig
34    37    1     0     0    
SMALL
USER_CHARGES
@<TRIPOS>ATOM
1     N1       4.0540  -36.9310   22.2210 N.ar    1  LIG  -0.6650  -0.6200 
2     C1       4.9660  -36.2380   22.9390 C.ar    1  LIG   0.3947   0.1600 
3     H1       6.0082  -36.2811   22.6707 H       1  LIG   0.0281   0.1500 
4     C2       4.6240  -35.4500   24.0360 C.ar    1  LIG  -0.2334  -0.1500 
5     H2       5.3884  -34.9151   24.5740 H       1  LIG   0.1480   0.1500 
6     C3       3.3050  -35.3690   24.4150 C.ar    1  LIG  -0.0698  -0.1435 
7     C4       2.3460  -36.0770   23.6860 C.ar    1  LIG  -0.0398   0.1170 
8     N2       0.9890  -36.0280   24.1030 N.am    1  LIG  -0.4596  -0.5470 
9     H3       0.7643  -35.9928   25.0860 H       1  LIG   0.3311   0.3700 
10    C5      -0.1450  -36.0180   23.4080 C.2     1  LIG   0.7361   0.5438 
11    C6      -0.1190  -36.0770   21.8860 C.ar    1  LIG  -0.2550   0.0862 
12    C7      -1.1230  -35.3990   21.1890 C.ar    1  LIG  -0.0321  -0.1500 
13    H4      -1.7552  -34.6955   21.7041 H       1  LIG   0.1623   0.1500 
14    C8      -1.2960  -35.6300   19.8690 C.ar    1  LIG  -0.2723  -0.1500 
15    H5      -2.0662  -35.1073   19.3273 H       1  LIG   0.1522   0.1500 
16    C9      -0.4670  -36.5450   19.2400 C.ar    1  LIG   0.4373   0.1600 
17    H6      -0.5947  -36.7554   18.1915 H       1  LIG   0.0280   0.1500 
18    N3       0.5220  -37.2120   19.8740 N.ar    1  LIG  -0.6893  -0.6200 
19    C10      0.7040  -36.9790   21.1800 C.ar    1  LIG   0.6480   0.4100 
20    N4       1.7670  -37.6730   21.8260 N.pl3   1  LIG  -0.6924  -0.3690 
21    C11      2.7540  -36.8570   22.5840 C.ar    1  LIG   0.5805   0.4100 
22    C12      2.9040  -34.5090   25.6010 C.3     1  LIG  -0.0620   0.1435 
23    H7       2.2235  -33.7630   25.2820 H       1  LIG   0.0570   0.0000 
24    H8       2.4436  -35.1154   26.3371 H       1  LIG   0.0495   0.0000 
25    H9       3.7654  -34.0491   26.0108 H       1  LIG   0.0519   0.0000 
26    O1      -1.2400  -35.9060   23.9770 O.2     1  LIG  -0.6361  -0.5700 
27    C13      2.3440  -38.7570   21.0360 C.3     1  LIG   0.1354   0.0690 
28    H10      3.1238  -38.3754   20.4296 H       1  LIG   0.0981   0.1000 
29    C14      2.9380  -39.8900   21.8010 C.3     1  LIG  -0.1181  -0.2000 
30    H11      3.8890  -40.1268   21.3997 H       1  LIG   0.0732   0.1000 
31    H12      3.0430  -39.6129   22.8177 H       1  LIG   0.0789   0.1000 
32    C15      1.6390  -40.0610   21.0880 C.3     1  LIG  -0.1196  -0.2000 
33    H13      0.6832  -39.9283   21.5242 H       1  LIG   0.0807   0.1000 
34    H14      1.5292  -40.4423   20.1061 H       1  LIG   0.0733   0.1000 
@<TRIPOS>BOND
1     2     1     ar
2     3     2     1
3     4     2     ar
4     5     4     1
5     6     4     ar
6     7     6     ar
7     8     7     1
8     9     8     1
9     10    8     1
10    11    10    1
11    12    11    ar
12    13    12    1
13    14    12    ar
14    15    14    1
15    16    14    ar
16    17    16    1
17    18    16    ar
18    19    11    ar
19    19    18    ar
20    20    19    1
21    21    1     ar
22    21    7     ar
23    21    20    1
24    22    6     1
25    23    22    1
26    24    22    1
27    25    22    1
28    26    10    2
29    27    20    1
30    28    27    1
31    29    27    1
32    30    29    1
33    31    29    1
34    32    27    1
35    32    29    1
36    33    32    1
37    34    32    1
@<TRIPOS>SUBSTRUCTURE
1   LIG    1    
 
########## Name        : 1VRT.lig
########## Description : AM1BCC_CHARGES =  -0.0002 ORIGINAL_CHARGES =  -0.0000

@<TRIPOS>MOLECULE
1VRT.lig
34    37    1     0     0    
SMALL
USER_CHARGES
@<TRIPOS>ATOM
1     N1       4.0540  -36.9310   22.2210 N.ar    1  LIG  -0.6650  -0.6200 
2     C1       4.9660  -36.2380   22.9390 C.ar    1  LIG   0.3947   0.1600 
3     H1       6.0082  -36.2811   22.6707 H       1  LIG   0.0281   0.1500 
4     C2       4.6240  -35.4500   24.0360 C.ar    1  LIG  -0.2334  -0.1500 
5     H2       5.3884  -34.9151   24.5740 H       1  LIG   0.1480   0.1500 
6     C3       3.3050  -35.3690   24.4150 C.ar    1  LIG  -0.0698  -0.1435 
7     C4       2.3460  -36.0770   23.6860 C.ar    1  LIG  -0.0398   0.1170 
8     N2       0.9890  -36.0280   24.1030 N.am    1  LIG  -0.4596  -0.5470 
9     H3       0.7643  -35.9928   25.0860 H       1  LIG   0.3311   0.3700 
10    C5      -0.1450  -36.0180   23.4080 C.2     1  LIG   0.7361   0.5438 
11    C6      -0.1190  -36.0770   21.8860 C.ar    1  LIG  -0.2550   0.0862 
12    C7      -1.1230  -35.3990   21.1890 C.ar    1  LIG  -0.0321  -0.1500 
13    H4      -1.7552  -34.6955   21.7041 H       1  LIG   0.1623   0.1500 
14    C8      -1.2960  -35.6300   19.8690 C.ar    1  LIG  -0.2723  -0.1500 
15    H5      -2.0662  -35.1073   19.3273 H       1  LIG   0.1522   0.1500 
16    C9      -0.4670  -36.5450   19.2400 C.ar    1  LIG   0.4373   0.1600 
17    H6      -0.5947  -36.7554   18.1915 H       1  LIG   0.0280   0.1500 
18    N3       0.5220  -37.2120   19.8740 N.ar    1  LIG  -0.6893  -0.6200 
19    C10      0.7040  -36.9790   21.1800 C.ar    1  LIG   0.6480   0.4100 
20    N4       1.7670  -37.6730   21.8260 N.pl3   1  LIG  -0.6924  -0.3690 
21    C11      2.7540  -36.8570   22.5840 C.ar    1  LIG   0.5805   0.4100 
22    C12      2.9040  -34.5090   25.6010 C.3     1  LIG  -0.0620   0.1435 
23    H7       2.2235  -33.7630   25.2820 H       1  LIG   0.0570   0.0000 
24    H8       2.4436  -35.1154   26.3371 H       1  LIG   0.0495   0.0000 
25    H9       3.7654  -34.0491   26.0108 H       1  LIG   0.0519   0.0000 
26    O1      -1.2400  -35.9060   23.9770 O.2     1  LIG  -0.6361  -0.5700 
27    C13      2.3440  -38.7570   21.0360 C.3     1  LIG   0.1354   0.0690 
28    H10      3.1238  -38.3754   20.4296 H       1  LIG   0.0981   0.1000 
29    C14      2.9380  -39.8900   21.8010 C.3     1  LIG  -0.1181  -0.2000 
30    H11      3.8890  -40.1268   21.3997 H       1  LIG   0.0732   0.1000 
31    H12      3.0430  -39.6129   22.8177 H       1  LIG   0.0789   0.1000 
32    C15      1.6390  -40.0610   21.0880 C.3     1  LIG  -0.1196  -0.2000 
33    H13      0.6832  -39.9283   21.5242 H       1  LIG   0.0807   0.1000 
34    H14      1.5292  -40.4423   20.1061 H       1  LIG   0.0733   0.1000 
@<TRIPOS>BOND
1     2     1     ar
2     3     2     1
3     4     2     ar
4     5     4     1
5     6     4     ar
6     7     6     ar
7     8     7     1
8     9     8     1
9     10    8     1
10    11    10    1
11    12    11    ar
12    13    12    1
13    14    12    ar
14    15    14    1
15    16    14    ar
16    17    16    1
17    18    16    ar
18    19    11    ar
19    19    18    ar
20    20    19    1
21    21    1     ar
22    21    7     ar
23    21    20    1
24    22    6     1
25    23    22    1
26    24    22    1
27    25    22    1
28    26    10    2
29    27    20    1
30    28    27    1
31    29    27    1
32    30    29    1
33    31    29    1
34    32    27    1
35    32    29    1
36    33    32    1
37    34    32    1
@<TRIPOS>SUBSTRUCTURE
1   LIG    1    
 
########## Name        : 1VRT.lig
########## Description : AM1BCC_CHARGES =  -0.0002 ORIGINAL_CHARGES =  -0.0000

@<TRIPOS>MOLECULE
1VRT.lig
34    37    1     0     0    
SMALL
USER_CHARGES
@<TRIPOS>ATOM
1     N1       4.0540  -36.9310   22.2210 N.ar    1  LIG  -0.6650  -0.6200 
2     C1       4.9660  -36.2380   22.9390 C.ar    1  LIG   0.3947   0.1600 
3     H1       6.0082  -36.2811   22.6707 H       1  LIG   0.0281   0.1500 
4     C2       4.6240  -35.4500   24.0360 C.ar    1  LIG  -0.2334  -0.1500 
5     H2       5.3884  -34.9151   24.5740 H       1  LIG   0.1480   0.1500 
6     C3       3.3050  -35.3690   24.4150 C.ar    1  LIG  -0.0698  -0.1435 
7     C4       2.3460  -36.0770   23.6860 C.ar    1  LIG  -0.0398   0.1170 
8     N2       0.9890  -36.0280   24.1030 N.am    1  LIG  -0.4596  -0.5470 
9     H3       0.7643  -35.9928   25.0860 H       1  LIG   0.3311   0.3700 
10    C5      -0.1450  -36.0180   23.4080 C.2     1  LIG   0.7361   0.5438 
11    C6      -0.1190  -36.0770   21.8860 C.ar    1  LIG  -0.2550   0.0862 
12    C7      -1.1230  -35.3990   21.1890 C.ar    1  LIG  -0.0321  -0.1500 
13    H4      -1.7552  -34.6955   21.7041 H       1  LIG   0.1623   0.1500 
14    C8      -1.2960  -35.6300   19.8690 C.ar    1  LIG  -0.2723  -0.1500 
15    H5      -2.0662  -35.1073   19.3273 H       1  LIG   0.1522   0.1500 
16    C9      -0.4670  -36.5450   19.2400 C.ar    1  LIG   0.4373   0.1600 
17    H6      -0.5947  -36.7554   18.1915 H       1  LIG   0.0280   0.1500 
18    N3       0.5220  -37.2120   19.8740 N.ar    1  LIG  -0.6893  -0.6200 
19    C10      0.7040  -36.9790   21.1800 C.ar    1  LIG   0.6480   0.4100 
20    N4       1.7670  -37.6730   21.8260 N.pl3   1  LIG  -0.6924  -0.3690 
21    C11      2.7540  -36.8570   22.5840 C.ar    1  LIG   0.5805   0.4100 
22    C12      2.9040  -34.5090   25.6010 C.3     1  LIG  -0.0620   0.1435 
23    H7       2.2235  -33.7630   25.2820 H       1  LIG   0.0570   0.0000 
24    H8       2.4436  -35.1154   26.3371 H       1  LIG   0.0495   0.0000 
25    H9       3.7654  -34.0491   26.0108 H       1  LIG   0.0519   0.0000 
26    O1      -1.2400  -35.9060   23.9770 O.2     1  LIG  -0.6361  -0.5700 
27    C13      2.3440  -38.7570   21.0360 C.3     1  LIG   0.1354   0.0690 
28    H10      3.1238  -38.3754   20.4296 H       1  LIG   0.0981   0.1000 
29    C14      2.9380  -39.8900   21.8010 C.3     1  LIG  -0.1181  -0.2000 
30    H11      3.8890  -40.1268   21.3997 H       1  LIG   0.0732   0.1000 
31    H12      3.0430  -39.6129   22.8177 H       1  LIG   0.0789   0.1000 
32    C15      1.6390  -40.0610   21.0880 C.3     1  LIG  -0.1196  -0.2000 
33    H13      0.6832  -39.9283   21.5242 H       1  LIG   0.0807   0.1000 
34    H14      1.5292  -40.4423   20.1061 H       1  LIG   0.0733   0.1000 
@<TRIPOS>BOND
1     2     1     ar
2     3     2     1
3     4     2     ar
4     5     4     1
5     6     4     ar
6     7     6     ar
7     8     7     1
8     9     8     1
9     10    8     1
10    11    10    1
11    12    11    ar
12    13    12    1
13    14    12    ar
14    15    14    1
15    16    14    ar
16    17    16    1
17    18    16    ar
18    19    11    ar
19    19    18    ar
20    20    19    1
21    21    1     ar
22    21    7     ar
23    21    20    1
24    22    6     1
25    23    22    1
26    24    22    1
27    25    22    1
28    26    10    2
29    27    20    1
30    28    27    1
31    29    27    1
32    30    29    1
33    31    29    1
34    32    27    1
35    32    29    1
36    33    32    1
37    34    32    1
@<TRIPOS>SUBSTRUCTURE
1   LIG    1    
 
########## Name        : 1VRT.lig
########## Description : AM1BCC_CHARGES =  -0.0002 ORIGINAL_CHARGES =  -0.0000

@<TRIPOS>MOLECULE
1VRT.lig
34    37    1     0     0    
SMALL
USER_CHARGES
@<TRIPOS>ATOM
1     N1       4.0540  -36.9310   22.2210 N.ar    1  LIG  -0.6650  -0.6200 
2     C1       4.9660  -36.2380   22.9390 C.ar    1  LIG   0.3947   0.1600 
3     H1       6.0082  -36.2811   22.6707 H       1  LIG   0.0281   0.1500 
4     C2       4.6240  -35.4500   24.0360 C.ar    1  LIG  -0.2334  -0.1500 
5     H2       5.3884  -34.9151   24.5740 H       1  LIG   0.1480   0.1500 
6     C3       3.3050  -35.3690   24.4150 C.ar    1  LIG  -0.0698  -0.1435 
7     C4       2.3460  -36.0770   23.6860 C.ar    1  LIG  -0.0398   0.1170 
8     N2       0.9890  -36.0280   24.1030 N.am    1  LIG  -0.4596  -0.5470 
9     H3       0.7643  -35.9928   25.0860 H       1  LIG   0.3311   0.3700 
10    C5      -0.1450  -36.0180   23.4080 C.2     1  LIG   0.7361   0.5438 
11    C6      -0.1190  -36.0770   21.8860 C.ar    1  LIG  -0.2550   0.0862 
12    C7      -1.1230  -35.3990   21.1890 C.ar    1  LIG  -0.0321  -0.1500 
13    H4      -1.7552  -34.6955   21.7041 H       1  LIG   0.1623   0.1500 
14    C8      -1.2960  -35.6300   19.8690 C.ar    1  LIG  -0.2723  -0.1500 
15    H5      -2.0662  -35.1073   19.3273 H       1  LIG   0.1522   0.1500 
16    C9      -0.4670  -36.5450   19.2400 C.ar    1  LIG   0.4373   0.1600 
17    H6      -0.5947  -36.7554   18.1915 H       1  LIG   0.0280   0.1500 
18    N3       0.5220  -37.2120   19.8740 N.ar    1  LIG  -0.6893  -0.6200 
19    C10      0.7040  -36.9790   21.1800 C.ar    1  LIG   0.6480   0.4100 
20    N4       1.7670  -37.6730   21.8260 N.pl3   1  LIG  -0.6924  -0.3690 
21    C11      2.7540  -36.8570   22.5840 C.ar    1  LIG   0.5805   0.4100 
22    C12      2.9040  -34.5090   25.6010 C.3     1  LIG  -0.0620   0.1435 
23    H7       2.2235  -33.7630   25.2820 H       1  LIG   0.0570   0.0000 
24    H8       2.4436  -35.1154   26.3371 H       1  LIG   0.0495   0.0000 
25    H9       3.7654  -34.0491   26.0108 H       1  LIG   0.0519   0.0000 
26    O1      -1.2400  -35.9060   23.9770 O.2     1  LIG  -0.6361  -0.5700 
27    C13      2.3440  -38.7570   21.0360 C.3     1  LIG   0.1354   0.0690 
28    H10      3.1238  -38.3754   20.4296 H       1  LIG   0.0981   0.1000 
29    C14      2.9380  -39.8900   21.8010 C.3     1  LIG  -0.1181  -0.2000 
30    H11      3.8890  -40.1268   21.3997 H       1  LIG   0.0732   0.1000 
31    H12      3.0430  -39.6129   22.8177 H       1  LIG   0.0789   0.1000 
32    C15      1.6390  -40.0610   21.0880 C.3     1  LIG  -0.1196  -0.2000 
33    H13      0.6832  -39.9283   21.5242 H       1  LIG   0.0807   0.1000 
34    H14      1.5292  -40.4423   20.1061 H       1  LIG   0.0733   0.1000 
@<TRIPOS>BOND
1     2     1     ar
2     3     2     1
3     4     2     ar
4     5     4     1
5     6     4     ar
6     7     6     ar
7     8     7     1
8     9     8     1
9     10    8     1
10    11    10    1
11    12    11    ar
12    13    12    1
13    14    12    ar
14    15    14    1
15    16    14    ar
16    17    16    1
17    18    16    ar
18    19    11    ar
19    19    18    ar
20    20    19    1
21    21    1     ar
22    21    7     ar
23    21    20    1
24    22    6     1
25    23    22    1
26    24    22    1
27    25    22    1
28    26    10    2
29    27    20    1
30    28    27    1
31    29    27    1
32    30    29    1
33    31    29    1
34    32    27    1
35    32    29    1
36    33    32    1
37    34    32    1
@<TRIPOS>SUBSTRUCTURE
1   LIG    1    
 
########## Name        : 1VRT.lig
########## Description : AM1BCC_CHARGES =  -0.0002 ORIGINAL_CHARGES =  -0.0000

@<TRIPOS>MOLECULE
1VRT.lig
34    37    1     0     0    
SMALL
USER_CHARGES
@<TRIPOS>ATOM
1     N1       4.0540  -36.9310   22.2210 N.ar    1  LIG  -0.6650  -0.6200 
2     C1       4.9660  -36.2380   22.9390 C.ar    1  LIG   0.3947   0.1600 
3     H1       6.0082  -36.2811   22.6707 H       1  LIG   0.0281   0.1500 
4     C2       4.6240  -35.4500   24.0360 C.ar    1  LIG  -0.2334  -0.1500 
5     H2       5.3884  -34.9151   24.5740 H       1  LIG   0.1480   0.1500 
6     C3       3.3050  -35.3690   24.4150 C.ar    1  LIG  -0.0698  -0.1435 
7     C4       2.3460  -36.0770   23.6860 C.ar    1  LIG  -0.0398   0.1170 
8     N2       0.9890  -36.0280   24.1030 N.am    1  LIG  -0.4596  -0.5470 
9     H3       0.7643  -35.9928   25.0860 H       1  LIG   0.3311   0.3700 
10    C5      -0.1450  -36.0180   23.4080 C.2     1  LIG   0.7361   0.5438 
11    C6      -0.1190  -36.0770   21.8860 C.ar    1  LIG  -0.2550   0.0862 
12    C7      -1.1230  -35.3990   21.1890 C.ar    1  LIG  -0.0321  -0.1500 
13    H4      -1.7552  -34.6955   21.7041 H       1  LIG   0.1623   0.1500 
14    C8      -1.2960  -35.6300   19.8690 C.ar    1  LIG  -0.2723  -0.1500 
15    H5      -2.0662  -35.1073   19.3273 H       1  LIG   0.1522   0.1500 
16    C9      -0.4670  -36.5450   19.2400 C.ar    1  LIG   0.4373   0.1600 
17    H6      -0.5947  -36.7554   18.1915 H       1  LIG   0.0280   0.1500 
18    N3       0.5220  -37.2120   19.8740 N.ar    1  LIG  -0.6893  -0.6200 
19    C10      0.7040  -36.9790   21.1800 C.ar    1  LIG   0.6480   0.4100 
20    N4       1.7670  -37.6730   21.8260 N.pl3   1  LIG  -0.6924  -0.3690 
21    C11      2.7540  -36.8570   22.5840 C.ar    1  LIG   0.5805   0.4100 
22    C12      2.9040  -34.5090   25.6010 C.3     1  LIG  -0.0620   0.1435 
23    H7       2.2235  -33.7630   25.2820 H       1  LIG   0.0570   0.0000 
24    H8       2.4436  -35.1154   26.3371 H       1  LIG   0.0495   0.0000 
25    H9       3.7654  -34.0491   26.0108 H       1  LIG   0.0519   0.0000 
26    O1      -1.2400  -35.9060   23.9770 O.2     1  LIG  -0.6361  -0.5700 
27    C13      2.3440  -38.7570   21.0360 C.3     1  LIG   0.1354   0.0690 
28    H10      3.1238  -38.3754   20.4296 H       1  LIG   0.0981   0.1000 
29    C14      2.9380  -39.8900   21.8010 C.3     1  LIG  -0.1181  -0.2000 
30    H11      3.8890  -40.1268   21.3997 H       1  LIG   0.0732   0.1000 
31    H12      3.0430  -39.6129   22.8177 H       1  LIG   0.0789   0.1000 
32    C15      1.6390  -40.0610   21.0880 C.3     1  LIG  -0.1196  -0.2000 
33    H13      0.6832  -39.9283   21.5242 H       1  LIG   0.0807   0.1000 
34    H14      1.5292  -40.4423   20.1061 H       1  LIG   0.0733   0.1000 
@<TRIPOS>BOND
1     2     1     ar
2     3     2     1
3     4     2     ar
4     5     4     1
5     6     4     ar
6     7     6     ar
7     8     7     1
8     9     8     1
9     10    8     1
10    11    10    1
11    12    11    ar
12    13    12    1
13    14    12    ar
14    15    14    1
15    16    14    ar
16    17    16    1
17    18    16    ar
18    19    11    ar
19    19    18    ar
20    20    19    1
21    21    1     ar
22    21    7     ar
23    21    20    1
24    22    6     1
25    23    22    1
26    24    22    1
27    25    22    1
28    26    10    2
29    27    20    1
30    28    27    1
31    29    27    1
32    30    29    1
33    31    29    1
34    32    27    1
35    32    29    1
36    33    32    1
37    34    32    1
@<TRIPOS>SUBSTRUCTURE
1   LIG    1    
 
########## Name        : 1VRT.lig
########## Description : AM1BCC_CHARGES =  -0.0002 ORIGINAL_CHARGES =  -0.0000

@<TRIPOS>MOLECULE
1VRT.lig
34    37    1     0     0    
SMALL
USER_CHARGES
@<TRIPOS>ATOM
1     N1       4.0540  -36.9310   22.2210 N.ar    1  LIG  -0.6650  -0.6200 
2     C1       4.9660  -36.2380   22.9390 C.ar    1  LIG   0.3947   0.1600 
3     H1       6.0082  -36.2811   22.6707 H       1  LIG   0.0281   0.1500 
4     C2       4.6240  -35.4500   24.0360 C.ar    1  LIG  -0.2334  -0.1500 
5     H2       5.3884  -34.9151   24.5740 H       1  LIG   0.1480   0.1500 
6     C3       3.3050  -35.3690   24.4150 C.ar    1  LIG  -0.0698  -0.1435 
7     C4       2.3460  -36.0770   23.6860 C.ar    1  LIG  -0.0398   0.1170 
8     N2       0.9890  -36.0280   24.1030 N.am    1  LIG  -0.4596  -0.5470 
9     H3       0.7643  -35.9928   25.0860 H       1  LIG   0.3311   0.3700 
10    C5      -0.1450  -36.0180   23.4080 C.2     1  LIG   0.7361   0.5438 
11    C6      -0.1190  -36.0770   21.8860 C.ar    1  LIG  -0.2550   0.0862 
12    C7      -1.1230  -35.3990   21.1890 C.ar    1  LIG  -0.0321  -0.1500 
13    H4      -1.7552  -34.6955   21.7041 H       1  LIG   0.1623   0.1500 
14    C8      -1.2960  -35.6300   19.8690 C.ar    1  LIG  -0.2723  -0.1500 
15    H5      -2.0662  -35.1073   19.3273 H       1  LIG   0.1522   0.1500 
16    C9      -0.4670  -36.5450   19.2400 C.ar    1  LIG   0.4373   0.1600 
17    H6      -0.5947  -36.7554   18.1915 H       1  LIG   0.0280   0.1500 
18    N3       0.5220  -37.2120   19.8740 N.ar    1  LIG  -0.6893  -0.6200 
19    C10      0.7040  -36.9790   21.1800 C.ar    1  LIG   0.6480   0.4100 
20    N4       1.7670  -37.6730   21.8260 N.pl3   1  LIG  -0.6924  -0.3690 
21    C11      2.7540  -36.8570   22.5840 C.ar    1  LIG   0.5805   0.4100 
22    C12      2.9040  -34.5090   25.6010 C.3     1  LIG  -0.0620   0.1435 
23    H7       2.2235  -33.7630   25.2820 H       1  LIG   0.0570   0.0000 
24    H8       2.4436  -35.1154   26.3371 H       1  LIG   0.0495   0.0000 
25    H9       3.7654  -34.0491   26.0108 H       1  LIG   0.0519   0.0000 
26    O1      -1.2400  -35.9060   23.9770 O.2     1  LIG  -0.6361  -0.5700 
27    C13      2.3440  -38.7570   21.0360 C.3     1  LIG   0.1354   0.0690 
28    H10      3.1238  -38.3754   20.4296 H       1  LIG   0.0981   0.1000 
29    C14      2.9380  -39.8900   21.8010 C.3     1  LIG  -0.1181  -0.2000 
30    H11      3.8890  -40.1268   21.3997 H       1  LIG   0.0732   0.1000 
31    H12      3.0430  -39.6129   22.8177 H       1  LIG   0.0789   0.1000 
32    C15      1.6390  -40.0610   21.0880 C.3     1  LIG  -0.1196  -0.2000 
33    H13      0.6832  -39.9283   21.5242 H       1  LIG   0.0807   0.1000 
34    H14      1.5292  -40.4423   20.1061 H       1  LIG   0.0733   0.1000 
@<TRIPOS>BOND
1     2     1     ar
2     3     2     1
3     4     2     ar
4     5     4     1
5     6     4     ar
6     7     6     ar
7     8     7     1
8     9     8     1
9     10    8     1
10    11    10    1
11    12    11    ar
12    13    12    1
13    14    12    ar
14    15    14    1
15    16    14    ar
16    17    16    1
17    18    16    ar
18    19    11    ar
19    19    18    ar
20    20    19    1
21    21    1     ar
22    21    7     ar
23    21    20    1
24    22    6     1
25    23    22    1
26    24    22    1
27    25    22    1
28    26    10    2
29    27    20    1
30    28    27    1
31    29    27    1
32    30    29    1
33    31    29    1
34    32    27    1
35    32    29    1
36    33    32    1
37    34    32    1
@<TRIPOS>SUBSTRUCTURE
1   LIG    1    
 
########## Name        : 1VRT.lig
########## Description : AM1BCC_CHARGES =  -0.0002 ORIGINAL_CHARGES =  -0.0000

@<TRIPOS>MOLECULE
1VRT.lig
34    37    1     0     0    
SMALL
USER_CHARGES
@<TRIPOS>ATOM
1     N1       4.0540  -36.9310   22.2210 N.ar    1  LIG  -0.6650  -0.6200 
2     C1       4.9660  -36.2380   22.9390 C.ar    1  LIG   0.3947   0.1600 
3     H1       6.0082  -36.2811   22.6707 H       1  LIG   0.0281   0.1500 
4     C2       4.6240  -35.4500   24.0360 C.ar    1  LIG  -0.2334  -0.1500 
5     H2       5.3884  -34.9151   24.5740 H       1  LIG   0.1480   0.1500 
6     C3       3.3050  -35.3690   24.4150 C.ar    1  LIG  -0.0698  -0.1435 
7     C4       2.3460  -36.0770   23.6860 C.ar    1  LIG  -0.0398   0.1170 
8     N2       0.9890  -36.0280   24.1030 N.am    1  LIG  -0.4596  -0.5470 
9     H3       0.7643  -35.9928   25.0860 H       1  LIG   0.3311   0.3700 
10    C5      -0.1450  -36.0180   23.4080 C.2     1  LIG   0.7361   0.5438 
11    C6      -0.1190  -36.0770   21.8860 C.ar    1  LIG  -0.2550   0.0862 
12    C7      -1.1230  -35.3990   21.1890 C.ar    1  LIG  -0.0321  -0.1500 
13    H4      -1.7552  -34.6955   21.7041 H       1  LIG   0.1623   0.1500 
14    C8      -1.2960  -35.6300   19.8690 C.ar    1  LIG  -0.2723  -0.1500 
15    H5      -2.0662  -35.1073   19.3273 H       1  LIG   0.1522   0.1500 
16    C9      -0.4670  -36.5450   19.2400 C.ar    1  LIG   0.4373   0.1600 
17    H6      -0.5947  -36.7554   18.1915 H       1  LIG   0.0280   0.1500 
18    N3       0.5220  -37.2120   19.8740 N.ar    1  LIG  -0.6893  -0.6200 
19    C10      0.7040  -36.9790   21.1800 C.ar    1  LIG   0.6480   0.4100 
20    N4       1.7670  -37.6730   21.8260 N.pl3   1  LIG  -0.6924  -0.3690 
21    C11      2.7540  -36.8570   22.5840 C.ar    1  LIG   0.5805   0.4100 
22    C12      2.9040  -34.5090   25.6010 C.3     1  LIG  -0.0620   0.1435 
23    H7       2.2235  -33.7630   25.2820 H       1  LIG   0.0570   0.0000 
24    H8       2.4436  -35.1154   26.3371 H       1  LIG   0.0495   0.0000 
25    H9       3.7654  -34.0491   26.0108 H       1  LIG   0.0519   0.0000 
26    O1      -1.2400  -35.9060   23.9770 O.2     1  LIG  -0.6361  -0.5700 
27    C13      2.3440  -38.7570   21.0360 C.3     1  LIG   0.1354   0.0690 
28    H10      3.1238  -38.3754   20.4296 H       1  LIG   0.0981   0.1000 
29    C14      2.9380  -39.8900   21.8010 C.3     1  LIG  -0.1181  -0.2000 
30    H11      3.8890  -40.1268   21.3997 H       1  LIG   0.0732   0.1000 
31    H12      3.0430  -39.6129   22.8177 H       1  LIG   0.0789   0.1000 
32    C15      1.6390  -40.0610   21.0880 C.3     1  LIG  -0.1196  -0.2000 
33    H13      0.6832  -39.9283   21.5242 H       1  LIG   0.0807   0.1000 
34    H14      1.5292  -40.4423   20.1061 H       1  LIG   0.0733   0.1000 
@<TRIPOS>BOND
1     2     1     ar
2     3     2     1
3     4     2     ar
4     5     4     1
5     6     4     ar
6     7     6     ar
7     8     7     1
8     9     8     1
9     10    8     1
10    11    10    1
11    12    11    ar
12    13    12    1
13    14    12    ar
14    15    14    1
15    16    14    ar
16    17    16    1
17    18    16    ar
18    19    11    ar
19    19    18    ar
20    20    19    1
21    21    1     ar
22    21    7     ar
23    21    20    1
24    22    6     1
25    23    22    1
26    24    22    1
27    25    22    1
28    26    10    2
29    27    20    1
30    28    27    1
31    29    27    1
32    30    29    1
33    31    29    1
34    32    27    1
35    32    29    1
36    33    32    1
37    34    32    1
@<TRIPOS>SUBSTRUCTURE
1   LIG    1    
 
########## Name        : 1VRT.lig
########## Description : AM1BCC_CHARGES =  -0.0002 ORIGINAL_CHARGES =  -0.0000

@<TRIPOS>MOLECULE
1VRT.lig
34    37    1     0     0    
SMALL
USER_CHARGES
@<TRIPOS>ATOM
1     N1       4.0540  -36.9310   22.2210 N.ar    1  LIG  -0.6650  -0.6200 
2     C1       4.9660  -36.2380   22.9390 C.ar    1  LIG   0.3947   0.1600 
3     H1       6.0082  -36.2811   22.6707 H       1  LIG   0.0281   0.1500 
4     C2       4.6240  -35.4500   24.0360 C.ar    1  LIG  -0.2334  -0.1500 
5     H2       5.3884  -34.9151   24.5740 H       1  LIG   0.1480   0.1500 
6     C3       3.3050  -35.3690   24.4150 C.ar    1  LIG  -0.0698  -0.1435 
7     C4       2.3460  -36.0770   23.6860 C.ar    1  LIG  -0.0398   0.1170 
8     N2       0.9890  -36.0280   24.1030 N.am    1  LIG  -0.4596  -0.5470 
9     H3       0.7643  -35.9928   25.0860 H       1  LIG   0.3311   0.3700 
10    C5      -0.1450  -36.0180   23.4080 C.2     1  LIG   0.7361   0.5438 
11    C6      -0.1190  -36.0770   21.8860 C.ar    1  LIG  -0.2550   0.0862 
12    C7      -1.1230  -35.3990   21.1890 C.ar    1  LIG  -0.0321  -0.1500 
13    H4      -1.7552  -34.6955   21.7041 H       1  LIG   0.1623   0.1500 
14    C8      -1.2960  -35.6300   19.8690 C.ar    1  LIG  -0.2723  -0.1500 
15    H5      -2.0662  -35.1073   19.3273 H       1  LIG   0.1522   0.1500 
16    C9      -0.4670  -36.5450   19.2400 C.ar    1  LIG   0.4373   0.1600 
17    H6      -0.5947  -36.7554   18.1915 H       1  LIG   0.0280   0.1500 
18    N3       0.5220  -37.2120   19.8740 N.ar    1  LIG  -0.6893  -0.6200 
19    C10      0.7040  -36.9790   21.1800 C.ar    1  LIG   0.6480   0.4100 
20    N4       1.7670  -37.6730   21.8260 N.pl3   1  LIG  -0.6924  -0.3690 
21    C11      2.7540  -36.8570   22.5840 C.ar    1  LIG   0.5805   0.4100 
22    C12      2.9040  -34.5090   25.6010 C.3     1  LIG  -0.0620   0.1435 
23    H7       2.2235  -33.7630   25.2820 H       1  LIG   0.0570   0.0000 
24    H8       2.4436  -35.1154   26.3371 H       1  LIG   0.0495   0.0000 
25    H9       3.7654  -34.0491   26.0108 H       1  LIG   0.0519   0.0000 
26    O1      -1.2400  -35.9060   23.9770 O.2     1  LIG  -0.6361  -0.5700 
27    C13      2.3440  -38.7570   21.0360 C.3     1  LIG   0.1354   0.0690 
28    H10      3.1238  -38.3754   20.4296 H       1  LIG   0.0981   0.1000 
29    C14      2.9380  -39.8900   21.8010 C.3     1  LIG  -0.1181  -0.2000 
30    H11      3.8890  -40.1268   21.3997 H       1  LIG   0.0732   0.1000 
31    H12      3.0430  -39.6129   22.8177 H       1  LIG   0.0789   0.1000 
32    C15      1.6390  -40.0610   21.0880 C.3     1  LIG  -0.1196  -0.2000 
33    H13      0.6832  -39.9283   21.5242 H       1  LIG   0.0807   0.1000 
34    H14      1.5292  -40.4423   20.1061 H       1  LIG   0.0733   0.1000 
@<TRIPOS>BOND
1     2     1     ar
2     3     2     1
3     4     2     ar
4     5     4     1
5     6     4     ar
6     7     6     ar
7     8     7     1
8     9     8     1
9     10    8     1
10    11    10    1
11    12    11    ar
12    13    12    1
13    14    12    ar
14    15    14    1
15    16    14    ar
16    17    16    1
17    18    16    ar
18    19    11    ar
19    19    18    ar
20    20    19    1
21    21    1     ar
22    21    7     ar
23    21    20    1
24    22    6     1
25    23    22    1
26    24    22    1
27    25    22    1
28    26    10    2
29    27    20    1
30    28    27    1
31    29    27    1
32    30    29    1
33    31    29    1
34    32    27    1
35    32    29    1
36    33    32    1
37    34    32    1
@<TRIPOS>SUBSTRUCTURE
1   LIG    1    
 
########## Name        : 1VRT.lig
########## Description : AM1BCC_CHARGES =  -0.0002 ORIGINAL_CHARGES =  -0.0000

@<TRIPOS>MOLECULE
1VRT.lig
34    37    1     0     0    
SMALL
USER_CHARGES
@<TRIPOS>ATOM
1     N1       4.0540  -36.9310   22.2210 N.ar    1  LIG  -0.6650  -0.6200 
2     C1       4.9660  -36.2380   22.9390 C.ar    1  LIG   0.3947   0.1600 
3     H1       6.0082  -36.2811   22.6707 H       1  LIG   0.0281   0.1500 
4     C2       4.6240  -35.4500   24.0360 C.ar    1  LIG  -0.2334  -0.1500 
5     H2       5.3884  -34.9151   24.5740 H       1  LIG   0.1480   0.1500 
6     C3       3.3050  -35.3690   24.4150 C.ar    1  LIG  -0.0698  -0.1435 
7     C4       2.3460  -36.0770   23.6860 C.ar    1  LIG  -0.0398   0.1170 
8     N2       0.9890  -36.0280   24.1030 N.am    1  LIG  -0.4596  -0.5470 
9     H3       0.7643  -35.9928   25.0860 H       1  LIG   0.3311   0.3700 
10    C5      -0.1450  -36.0180   23.4080 C.2     1  LIG   0.7361   0.5438 
11    C6      -0.1190  -36.0770   21.8860 C.ar    1  LIG  -0.2550   0.0862 
12    C7      -1.1230  -35.3990   21.1890 C.ar    1  LIG  -0.0321  -0.1500 
13    H4      -1.7552  -34.6955   21.7041 H       1  LIG   0.1623   0.1500 
14    C8      -1.2960  -35.6300   19.8690 C.ar    1  LIG  -0.2723  -0.1500 
15    H5      -2.0662  -35.1073   19.3273 H       1  LIG   0.1522   0.1500 
16    C9      -0.4670  -36.5450   19.2400 C.ar    1  LIG   0.4373   0.1600 
17    H6      -0.5947  -36.7554   18.1915 H       1  LIG   0.0280   0.1500 
18    N3       0.5220  -37.2120   19.8740 N.ar    1  LIG  -0.6893  -0.6200 
19    C10      0.7040  -36.9790   21.1800 C.ar    1  LIG   0.6480   0.4100 
20    N4       1.7670  -37.6730   21.8260 N.pl3   1  LIG  -0.6924  -0.3690 
21    C11      2.7540  -36.8570   22.5840 C.ar    1  LIG   0.5805   0.4100 
22    C12      2.9040  -34.5090   25.6010 C.3     1  LIG  -0.0620   0.1435 
23    H7       2.2235  -33.7630   25.2820 H       1  LIG   0.0570   0.0000 
24    H8       2.4436  -35.1154   26.3371 H       1  LIG   0.0495   0.0000 
25    H9       3.7654  -34.0491   26.0108 H       1  LIG   0.0519   0.0000 
26    O1      -1.2400  -35.9060   23.9770 O.2     1  LIG  -0.6361  -0.5700 
27    C13      2.3440  -38.7570   21.0360 C.3     1  LIG   0.1354   0.0690 
28    H10      3.1238  -38.3754   20.4296 H       1  LIG   0.0981   0.1000 
29    C14      2.9380  -39.8900   21.8010 C.3     1  LIG  -0.1181  -0.2000 
30    H11      3.8890  -40.1268   21.3997 H       1  LIG   0.0732   0.1000 
31    H12      3.0430  -39.6129   22.8177 H       1  LIG   0.0789   0.1000 
32    C15      1.6390  -40.0610   21.0880 C.3     1  LIG  -0.1196  -0.2000 
33    H13      0.6832  -39.9283   21.5242 H       1  LIG   0.0807   0.1000 
34    H14      1.5292  -40.4423   20.1061 H       1  LIG   0.0733   0.1000 
@<TRIPOS>BOND
1     2     1     ar
2     3     2     1
3     4     2     ar
4     5     4     1
5     6     4     ar
6     7     6     ar
7     8     7     1
8     9     8     1
9     10    8     1
10    11    10    1
11    12    11    ar
12    13    12    1
13    14    12    ar
14    15    14    1
15    16    14    ar
16    17    16    1
17    18    16    ar
18    19    11    ar
19    19    18    ar
20    20    19    1
21    21    1     ar
22    21    7     ar
23    21    20    1
24    22    6     1
25    23    22    1
26    24    22    1
27    25    22    1
28    26    10    2
29    27    20    1
30    28    27    1
31    29    27    1
32    30    29    1
33    31    29    1
34    32    27    1
35    32    29    1
36    33    32    1
37    34    32    1
@<TRIPOS>SUBSTRUCTURE
1   LIG    1    
 
########## Name        : 1VRT.lig
########## Description : AM1BCC_CHARGES =  -0.0002 ORIGINAL_CHARGES =  -0.0000

@<TRIPOS>MOLECULE
1VRT.lig
34    37    1     0     0    
SMALL
USER_CHARGES
@<TRIPOS>ATOM
1     N1       4.0540  -36.9310   22.2210 N.ar    1  LIG  -0.6650  -0.6200 
2     C1       4.9660  -36.2380   22.9390 C.ar    1  LIG   0.3947   0.1600 
3     H1       6.0082  -36.2811   22.6707 H       1  LIG   0.0281   0.1500 
4     C2       4.6240  -35.4500   24.0360 C.ar    1  LIG  -0.2334  -0.1500 
5     H2       5.3884  -34.9151   24.5740 H       1  LIG   0.1480   0.1500 
6     C3       3.3050  -35.3690   24.4150 C.ar    1  LIG  -0.0698  -0.1435 
7     C4       2.3460  -36.0770   23.6860 C.ar    1  LIG  -0.0398   0.1170 
8     N2       0.9890  -36.0280   24.1030 N.am    1  LIG  -0.4596  -0.5470 
9     H3       0.7643  -35.9928   25.0860 H       1  LIG   0.3311   0.3700 
10    C5      -0.1450  -36.0180   23.4080 C.2     1  LIG   0.7361   0.5438 
11    C6      -0.1190  -36.0770   21.8860 C.ar    1  LIG  -0.2550   0.0862 
12    C7      -1.1230  -35.3990   21.1890 C.ar    1  LIG  -0.0321  -0.1500 
13    H4      -1.7552  -34.6955   21.7041 H       1  LIG   0.1623   0.1500 
14    C8      -1.2960  -35.6300   19.8690 C.ar    1  LIG  -0.2723  -0.1500 
15    H5      -2.0662  -35.1073   19.3273 H       1  LIG   0.1522   0.1500 
16    C9      -0.4670  -36.5450   19.2400 C.ar    1  LIG   0.4373   0.1600 
17    H6      -0.5947  -36.7554   18.1915 H       1  LIG   0.0280   0.1500 
18    N3       0.5220  -37.2120   19.8740 N.ar    1  LIG  -0.6893  -0.6200 
19    C10      0.7040  -36.9790   21.1800 C.ar    1  LIG   0.6480   0.4100 
20    N4       1.7670  -37.6730   21.8260 N.pl3   1  LIG  -0.6924  -0.3690 
21    C11      2.7540  -36.8570   22.5840 C.ar    1  LIG   0.5805   0.4100 
22    C12      2.9040  -34.5090   25.6010 C.3     1  LIG  -0.0620   0.1435 
23    H7       2.2235  -33.7630   25.2820 H       1  LIG   0.0570   0.0000 
24    H8       2.4436  -35.1154   26.3371 H       1  LIG   0.0495   0.0000 
25    H9       3.7654  -34.0491   26.0108 H       1  LIG   0.0519   0.0000 
26    O1      -1.2400  -35.9060   23.9770 O.2     1  LIG  -0.6361  -0.5700 
27    C13      2.3440  -38.7570   21.0360 C.3     1  LIG   0.1354   0.0690 
28    H10      3.1238  -38.3754   20.4296 H       1  LIG   0.0981   0.1000 
29    C14      2.9380  -39.8900   21.8010 C.3     1  LIG  -0.1181  -0.2000 
30    H11      3.8890  -40.1268   21.3997 H       1  LIG   0.0732   0.1000 
31    H12      3.0430  -39.6129   22.8177 H       1  LIG   0.0789   0.1000 
32    C15      1.6390  -40.0610   21.0880 C.3     1  LIG  -0.1196  -0.2000 
33    H13      0.6832  -39.9283   21.5242 H       1  LIG   0.0807   0.1000 
34    H14      1.5292  -40.4423   20.1061 H       1  LIG   0.0733   0.1000 
@<TRIPOS>BOND
1     2     1     ar
2     3     2     1
3     4     2     ar
4     5     4     1
5     6     4     ar
6     7     6     ar
7     8     7     1
8     9     8     1
9     10    8     1
10    11    10    1
11    12    11    ar
12    13    12    1
13    14    12    ar
14    15    14    1
15    16    14    ar
16    17    16    1
17    18    16    ar
18    19    11    ar
19    19    18    ar
20    20    19    1
21    21    1     ar
22    21    7     ar
23    21    20    1
24    22    6     1
25    23    22    1
26    24    22    1
27    25    22    1
28    26    10    2
29    27    20    1
30    28    27    1
31    29    27    1
32    30    29    1
33    31    29    1
34    32    27    1
35    32    29    1
36    33    32    1
37    34    32    1
@<TRIPOS>SUBSTRUCTURE
1   LIG    1    
 
########## Name        : 1VRT.lig
########## Description : AM1BCC_CHARGES =  -0.0002 ORIGINAL_CHARGES =  -0.0000

@<TRIPOS>MOLECULE
1VRT.lig
34    37    1     0     0    
SMALL
USER_CHARGES
@<TRIPOS>ATOM
1     N1       4.0540  -36.9310   22.2210 N.ar    1  LIG  -0.6650  -0.6200 
2     C1       4.9660  -36.2380   22.9390 C.ar    1  LIG   0.3947   0.1600 
3     H1       6.0082  -36.2811   22.6707 H       1  LIG   0.0281   0.1500 
4     C2       4.6240  -35.4500   24.0360 C.ar    1  LIG  -0.2334  -0.1500 
5     H2       5.3884  -34.9151   24.5740 H       1  LIG   0.1480   0.1500 
6     C3       3.3050  -35.3690   24.4150 C.ar    1  LIG  -0.0698  -0.1435 
7     C4       2.3460  -36.0770   23.6860 C.ar    1  LIG  -0.0398   0.1170 
8     N2       0.9890  -36.0280   24.1030 N.am    1  LIG  -0.4596  -0.5470 
9     H3       0.7643  -35.9928   25.0860 H       1  LIG   0.3311   0.3700 
10    C5      -0.1450  -36.0180   23.4080 C.2     1  LIG   0.7361   0.5438 
11    C6      -0.1190  -36.0770   21.8860 C.ar    1  LIG  -0.2550   0.0862 
12    C7      -1.1230  -35.3990   21.1890 C.ar    1  LIG  -0.0321  -0.1500 
13    H4      -1.7552  -34.6955   21.7041 H       1  LIG   0.1623   0.1500 
14    C8      -1.2960  -35.6300   19.8690 C.ar    1  LIG  -0.2723  -0.1500 
15    H5      -2.0662  -35.1073   19.3273 H       1  LIG   0.1522   0.1500 
16    C9      -0.4670  -36.5450   19.2400 C.ar    1  LIG   0.4373   0.1600 
17    H6      -0.5947  -36.7554   18.1915 H       1  LIG   0.0280   0.1500 
18    N3       0.5220  -37.2120   19.8740 N.ar    1  LIG  -0.6893  -0.6200 
19    C10      0.7040  -36.9790   21.1800 C.ar    1  LIG   0.6480   0.4100 
20    N4       1.7670  -37.6730   21.8260 N.pl3   1  LIG  -0.6924  -0.3690 
21    C11      2.7540  -36.8570   22.5840 C.ar    1  LIG   0.5805   0.4100 
22    C12      2.9040  -34.5090   25.6010 C.3     1  LIG  -0.0620   0.1435 
23    H7       2.2235  -33.7630   25.2820 H       1  LIG   0.0570   0.0000 
24    H8       2.4436  -35.1154   26.3371 H       1  LIG   0.0495   0.0000 
25    H9       3.7654  -34.0491   26.0108 H       1  LIG   0.0519   0.0000 
26    O1      -1.2400  -35.9060   23.9770 O.2     1  LIG  -0.6361  -0.5700 
27    C13      2.3440  -38.7570   21.0360 C.3     1  LIG   0.1354   0.0690 
28    H10      3.1238  -38.3754   20.4296 H       1  LIG   0.0981   0.1000 
29    C14      2.9380  -39.8900   21.8010 C.3     1  LIG  -0.1181  -0.2000 
30    H11      3.8890  -40.1268   21.3997 H       1  LIG   0.0732   0.1000 
31    H12      3.0430  -39.6129   22.8177 H       1  LIG   0.0789   0.1000 
32    C15      1.6390  -40.0610   21.0880 C.3     1  LIG  -0.1196  -0.2000 
33    H13      0.6832  -39.9283   21.5242 H       1  LIG   0.0807   0.1000 
34    H14      1.5292  -40.4423   20.1061 H       1  LIG   0.0733   0.1000 
@<TRIPOS>BOND
1     2     1     ar
2     3     2     1
3     4     2     ar
4     5     4     1
5     6     4     ar
6     7     6     ar
7     8     7     1
8     9     8     1
9     10    8     1
10    11    10    1
11    12    11    ar
12    13    12    1
13    14    12    ar
14    15    14    1
15    16    14    ar
16    17    16    1
17    18    16    ar
18    19    11    ar
19    19    18    ar
20    20    19    1
21    21    1     ar
22    21    7     ar
23    21    20    1
24    22    6     1
25    23    22    1
26    24    22    1
27    25    22    1
28    26    10    2
29    27    20    1
30    28    27    1
31    29    27    1
32    30    29    1
33    31    29    1
34    32    27    1
35    32    29    1
36    33    32    1
37    34    32    1
@<TRIPOS>SUBSTRUCTURE
1   LIG    1    
 
########## Name        : 1VRT.lig
########## Description : AM1BCC_CHARGES =  -0.0002 ORIGINAL_CHARGES =  -0.0000

@<TRIPOS>MOLECULE
1VRT.lig
34    37    1     0     0    
SMALL
USER_CHARGES
@<TRIPOS>ATOM
1     N1       4.0540  -36.9310   22.2210 N.ar    1  LIG  -0.6650  -0.6200 
2     C1       4.9660  -36.2380   22.9390 C.ar    1  LIG   0.3947   0.1600 
3     H1       6.0082  -36.2811   22.6707 H       1  LIG   0.0281   0.1500 
4     C2       4.6240  -35.4500   24.0360 C.ar    1  LIG  -0.2334  -0.1500 
5     H2       5.3884  -34.9151   24.5740 H       1  LIG   0.1480   0.1500 
6     C3       3.3050  -35.3690   24.4150 C.ar    1  LIG  -0.0698  -0.1435 
7     C4       2.3460  -36.0770   23.6860 C.ar    1  LIG  -0.0398   0.1170 
8     N2       0.9890  -36.0280   24.1030 N.am    1  LIG  -0.4596  -0.5470 
9     H3       0.7643  -35.9928   25.0860 H       1  LIG   0.3311   0.3700 
10    C5      -0.1450  -36.0180   23.4080 C.2     1  LIG   0.7361   0.5438 
11    C6      -0.1190  -36.0770   21.8860 C.ar    1  LIG  -0.2550   0.0862 
12    C7      -1.1230  -35.3990   21.1890 C.ar    1  LIG  -0.0321  -0.1500 
13    H4      -1.7552  -34.6955   21.7041 H       1  LIG   0.1623   0.1500 
14    C8      -1.2960  -35.6300   19.8690 C.ar    1  LIG  -0.2723  -0.1500 
15    H5      -2.0662  -35.1073   19.3273 H       1  LIG   0.1522   0.1500 
16    C9      -0.4670  -36.5450   19.2400 C.ar    1  LIG   0.4373   0.1600 
17    H6      -0.5947  -36.7554   18.1915 H       1  LIG   0.0280   0.1500 
18    N3       0.5220  -37.2120   19.8740 N.ar    1  LIG  -0.6893  -0.6200 
19    C10      0.7040  -36.9790   21.1800 C.ar    1  LIG   0.6480   0.4100 
20    N4       1.7670  -37.6730   21.8260 N.pl3   1  LIG  -0.6924  -0.3690 
21    C11      2.7540  -36.8570   22.5840 C.ar    1  LIG   0.5805   0.4100 
22    C12      2.9040  -34.5090   25.6010 C.3     1  LIG  -0.0620   0.1435 
23    H7       2.2235  -33.7630   25.2820 H       1  LIG   0.0570   0.0000 
24    H8       2.4436  -35.1154   26.3371 H       1  LIG   0.0495   0.0000 
25    H9       3.7654  -34.0491   26.0108 H       1  LIG   0.0519   0.0000 
26    O1      -1.2400  -35.9060   23.9770 O.2     1  LIG  -0.6361  -0.5700 
27    C13      2.3440  -38.7570   21.0360 C.3     1  LIG   0.1354   0.0690 
28    H10      3.1238  -38.3754   20.4296 H       1  LIG   0.0981   0.1000 
29    C14      2.9380  -39.8900   21.8010 C.3     1  LIG  -0.1181  -0.2000 
30    H11      3.8890  -40.1268   21.3997 H       1  LIG   0.0732   0.1000 
31    H12      3.0430  -39.6129   22.8177 H       1  LIG   0.0789   0.1000 
32    C15      1.6390  -40.0610   21.0880 C.3     1  LIG  -0.1196  -0.2000 
33    H13      0.6832  -39.9283   21.5242 H       1  LIG   0.0807   0.1000 
34    H14      1.5292  -40.4423   20.1061 H       1  LIG   0.0733   0.1000 
@<TRIPOS>BOND
1     2     1     ar
2     3     2     1
3     4     2     ar
4     5     4     1
5     6     4     ar
6     7     6     ar
7     8     7     1
8     9     8     1
9     10    8     1
10    11    10    1
11    12    11    ar
12    13    12    1
13    14    12    ar
14    15    14    1
15    16    14    ar
16    17    16    1
17    18    16    ar
18    19    11    ar
19    19    18    ar
20    20    19    1
21    21    1     ar
22    21    7     ar
23    21    20    1
24    22    6     1
25    23    22    1
26    24    22    1
27    25    22    1
28    26    10    2
29    27    20    1
30    28    27    1
31    29    27    1
32    30    29    1
33    31    29    1
34    32    27    1
35    32    29    1
36    33    32    1
37    34    32    1
@<TRIPOS>SUBSTRUCTURE
1   LIG    1    
 
########## Name        : 1VRT.lig
########## Description : AM1BCC_CHARGES =  -0.0002 ORIGINAL_CHARGES =  -0.0000

@<TRIPOS>MOLECULE
1VRT.lig
34    37    1     0     0    
SMALL
USER_CHARGES
@<TRIPOS>ATOM
1     N1       4.0540  -36.9310   22.2210 N.ar    1  LIG  -0.6650  -0.6200 
2     C1       4.9660  -36.2380   22.9390 C.ar    1  LIG   0.3947   0.1600 
3     H1       6.0082  -36.2811   22.6707 H       1  LIG   0.0281   0.1500 
4     C2       4.6240  -35.4500   24.0360 C.ar    1  LIG  -0.2334  -0.1500 
5     H2       5.3884  -34.9151   24.5740 H       1  LIG   0.1480   0.1500 
6     C3       3.3050  -35.3690   24.4150 C.ar    1  LIG  -0.0698  -0.1435 
7     C4       2.3460  -36.0770   23.6860 C.ar    1  LIG  -0.0398   0.1170 
8     N2       0.9890  -36.0280   24.1030 N.am    1  LIG  -0.4596  -0.5470 
9     H3       0.7643  -35.9928   25.0860 H       1  LIG   0.3311   0.3700 
10    C5      -0.1450  -36.0180   23.4080 C.2     1  LIG   0.7361   0.5438 
11    C6      -0.1190  -36.0770   21.8860 C.ar    1  LIG  -0.2550   0.0862 
12    C7      -1.1230  -35.3990   21.1890 C.ar    1  LIG  -0.0321  -0.1500 
13    H4      -1.7552  -34.6955   21.7041 H       1  LIG   0.1623   0.1500 
14    C8      -1.2960  -35.6300   19.8690 C.ar    1  LIG  -0.2723  -0.1500 
15    H5      -2.0662  -35.1073   19.3273 H       1  LIG   0.1522   0.1500 
16    C9      -0.4670  -36.5450   19.2400 C.ar    1  LIG   0.4373   0.1600 
17    H6      -0.5947  -36.7554   18.1915 H       1  LIG   0.0280   0.1500 
18    N3       0.5220  -37.2120   19.8740 N.ar    1  LIG  -0.6893  -0.6200 
19    C10      0.7040  -36.9790   21.1800 C.ar    1  LIG   0.6480   0.4100 
20    N4       1.7670  -37.6730   21.8260 N.pl3   1  LIG  -0.6924  -0.3690 
21    C11      2.7540  -36.8570   22.5840 C.ar    1  LIG   0.5805   0.4100 
22    C12      2.9040  -34.5090   25.6010 C.3     1  LIG  -0.0620   0.1435 
23    H7       2.2235  -33.7630   25.2820 H       1  LIG   0.0570   0.0000 
24    H8       2.4436  -35.1154   26.3371 H       1  LIG   0.0495   0.0000 
25    H9       3.7654  -34.0491   26.0108 H       1  LIG   0.0519   0.0000 
26    O1      -1.2400  -35.9060   23.9770 O.2     1  LIG  -0.6361  -0.5700 
27    C13      2.3440  -38.7570   21.0360 C.3     1  LIG   0.1354   0.0690 
28    H10      3.1238  -38.3754   20.4296 H       1  LIG   0.0981   0.1000 
29    C14      2.9380  -39.8900   21.8010 C.3     1  LIG  -0.1181  -0.2000 
30    H11      3.8890  -40.1268   21.3997 H       1  LIG   0.0732   0.1000 
31    H12      3.0430  -39.6129   22.8177 H       1  LIG   0.0789   0.1000 
32    C15      1.6390  -40.0610   21.0880 C.3     1  LIG  -0.1196  -0.2000 
33    H13      0.6832  -39.9283   21.5242 H       1  LIG   0.0807   0.1000 
34    H14      1.5292  -40.4423   20.1061 H       1  LIG   0.0733   0.1000 
@<TRIPOS>BOND
1     2     1     ar
2     3     2     1
3     4     2     ar
4     5     4     1
5     6     4     ar
6     7     6     ar
7     8     7     1
8     9     8     1
9     10    8     1
10    11    10    1
11    12    11    ar
12    13    12    1
13    14    12    ar
14    15    14    1
15    16    14    ar
16    17    16    1
17    18    16    ar
18    19    11    ar
19    19    18    ar
20    20    19    1
21    21    1     ar
22    21    7     ar
23    21    20    1
24    22    6     1
25    23    22    1
26    24    22    1
27    25    22    1
28    26    10    2
29    27    20    1
30    28    27    1
31    29    27    1
32    30    29    1
33    31    29    1
34    32    27    1
35    32    29    1
36    33    32    1
37    34    32    1
@<TRIPOS>SUBSTRUCTURE
1   LIG    1    
 
########## Name        : 1VRT.lig
########## Description : AM1BCC_CHARGES =  -0.0002 ORIGINAL_CHARGES =  -0.0000

@<TRIPOS>MOLECULE
1VRT.lig
34    37    1     0     0    
SMALL
USER_CHARGES
@<TRIPOS>ATOM
1     N1       4.0540  -36.9310   22.2210 N.ar    1  LIG  -0.6650  -0.6200 
2     C1       4.9660  -36.2380   22.9390 C.ar    1  LIG   0.3947   0.1600 
3     H1       6.0082  -36.2811   22.6707 H       1  LIG   0.0281   0.1500 
4     C2       4.6240  -35.4500   24.0360 C.ar    1  LIG  -0.2334  -0.1500 
5     H2       5.3884  -34.9151   24.5740 H       1  LIG   0.1480   0.1500 
6     C3       3.3050  -35.3690   24.4150 C.ar    1  LIG  -0.0698  -0.1435 
7     C4       2.3460  -36.0770   23.6860 C.ar    1  LIG  -0.0398   0.1170 
8     N2       0.9890  -36.0280   24.1030 N.am    1  LIG  -0.4596  -0.5470 
9     H3       0.7643  -35.9928   25.0860 H       1  LIG   0.3311   0.3700 
10    C5      -0.1450  -36.0180   23.4080 C.2     1  LIG   0.7361   0.5438 
11    C6      -0.1190  -36.0770   21.8860 C.ar    1  LIG  -0.2550   0.0862 
12    C7      -1.1230  -35.3990   21.1890 C.ar    1  LIG  -0.0321  -0.1500 
13    H4      -1.7552  -34.6955   21.7041 H       1  LIG   0.1623   0.1500 
14    C8      -1.2960  -35.6300   19.8690 C.ar    1  LIG  -0.2723  -0.1500 
15    H5      -2.0662  -35.1073   19.3273 H       1  LIG   0.1522   0.1500 
16    C9      -0.4670  -36.5450   19.2400 C.ar    1  LIG   0.4373   0.1600 
17    H6      -0.5947  -36.7554   18.1915 H       1  LIG   0.0280   0.1500 
18    N3       0.5220  -37.2120   19.8740 N.ar    1  LIG  -0.6893  -0.6200 
19    C10      0.7040  -36.9790   21.1800 C.ar    1  LIG   0.6480   0.4100 
20    N4       1.7670  -37.6730   21.8260 N.pl3   1  LIG  -0.6924  -0.3690 
21    C11      2.7540  -36.8570   22.5840 C.ar    1  LIG   0.5805   0.4100 
22    C12      2.9040  -34.5090   25.6010 C.3     1  LIG  -0.0620   0.1435 
23    H7       2.2235  -33.7630   25.2820 H       1  LIG   0.0570   0.0000 
24    H8       2.4436  -35.1154   26.3371 H       1  LIG   0.0495   0.0000 
25    H9       3.7654  -34.0491   26.0108 H       1  LIG   0.0519   0.0000 
26    O1      -1.2400  -35.9060   23.9770 O.2     1  LIG  -0.6361  -0.5700 
27    C13      2.3440  -38.7570   21.0360 C.3     1  LIG   0.1354   0.0690 
28    H10      3.1238  -38.3754   20.4296 H       1  LIG   0.0981   0.1000 
29    C14      2.9380  -39.8900   21.8010 C.3     1  LIG  -0.1181  -0.2000 
30    H11      3.8890  -40.1268   21.3997 H       1  LIG   0.0732   0.1000 
31    H12      3.0430  -39.6129   22.8177 H       1  LIG   0.0789   0.1000 
32    C15      1.6390  -40.0610   21.0880 C.3     1  LIG  -0.1196  -0.2000 
33    H13      0.6832  -39.9283   21.5242 H       1  LIG   0.0807   0.1000 
34    H14      1.5292  -40.4423   20.1061 H       1  LIG   0.0733   0.1000 
@<TRIPOS>BOND
1     2     1     ar
2     3     2     1
3     4     2     ar
4     5     4     1
5     6     4     ar
6     7     6     ar
7     8     7     1
8     9     8     1
9     10    8     1
10    11    10    1
11    12    11    ar
12    13    12    1
13    14    12    ar
14    15    14    1
15    16    14    ar
16    17    16    1
17    18    16    ar
18    19    11    ar
19    19    18    ar
20    20    19    1
21    21    1     ar
22    21    7     ar
23    21    20    1
24    22    6     1
25    23    22    1
26    24    22    1
27    25    22    1
28    26    10    2
29    27    20    1
30    28    27    1
31    29    27    1
32    30    29    1
33    31    29    1
34    32    27    1
35    32    29    1
36    33    32    1
37    34    32    1
@<TRIPOS>SUBSTRUCTURE
1   LIG    1    
 
########## Name        : 1VRT.lig
########## Description : AM1BCC_CHARGES =  -0.0002 ORIGINAL_CHARGES =  -0.0000

@<TRIPOS>MOLECULE
1VRT.lig
34    37    1     0     0    
SMALL
USER_CHARGES
@<TRIPOS>ATOM
1     N1       4.0540  -36.9310   22.2210 N.ar    1  LIG  -0.6650  -0.6200 
2     C1       4.9660  -36.2380   22.9390 C.ar    1  LIG   0.3947   0.1600 
3     H1       6.0082  -36.2811   22.6707 H       1  LIG   0.0281   0.1500 
4     C2       4.6240  -35.4500   24.0360 C.ar    1  LIG  -0.2334  -0.1500 
5     H2       5.3884  -34.9151   24.5740 H       1  LIG   0.1480   0.1500 
6     C3       3.3050  -35.3690   24.4150 C.ar    1  LIG  -0.0698  -0.1435 
7     C4       2.3460  -36.0770   23.6860 C.ar    1  LIG  -0.0398   0.1170 
8     N2       0.9890  -36.0280   24.1030 N.am    1  LIG  -0.4596  -0.5470 
9     H3       0.7643  -35.9928   25.0860 H       1  LIG   0.3311   0.3700 
10    C5      -0.1450  -36.0180   23.4080 C.2     1  LIG   0.7361   0.5438 
11    C6      -0.1190  -36.0770   21.8860 C.ar    1  LIG  -0.2550   0.0862 
12    C7      -1.1230  -35.3990   21.1890 C.ar    1  LIG  -0.0321  -0.1500 
13    H4      -1.7552  -34.6955   21.7041 H       1  LIG   0.1623   0.1500 
14    C8      -1.2960  -35.6300   19.8690 C.ar    1  LIG  -0.2723  -0.1500 
15    H5      -2.0662  -35.1073   19.3273 H       1  LIG   0.1522   0.1500 
16    C9      -0.4670  -36.5450   19.2400 C.ar    1  LIG   0.4373   0.1600 
17    H6      -0.5947  -36.7554   18.1915 H       1  LIG   0.0280   0.1500 
18    N3       0.5220  -37.2120   19.8740 N.ar    1  LIG  -0.6893  -0.6200 
19    C10      0.7040  -36.9790   21.1800 C.ar    1  LIG   0.6480   0.4100 
20    N4       1.7670  -37.6730   21.8260 N.pl3   1  LIG  -0.6924  -0.3690 
21    C11      2.7540  -36.8570   22.5840 C.ar    1  LIG   0.5805   0.4100 
22    C12      2.9040  -34.5090   25.6010 C.3     1  LIG  -0.0620   0.1435 
23    H7       2.2235  -33.7630   25.2820 H       1  LIG   0.0570   0.0000 
24    H8       2.4436  -35.1154   26.3371 H       1  LIG   0.0495   0.0000 
25    H9       3.7654  -34.0491   26.0108 H       1  LIG   0.0519   0.0000 
26    O1      -1.2400  -35.9060   23.9770 O.2     1  LIG  -0.6361  -0.5700 
27    C13      2.3440  -38.7570   21.0360 C.3     1  LIG   0.1354   0.0690 
28    H10      3.1238  -38.3754   20.4296 H       1  LIG   0.0981   0.1000 
29    C14      2.9380  -39.8900   21.8010 C.3     1  LIG  -0.1181  -0.2000 
30    H11      3.8890  -40.1268   21.3997 H       1  LIG   0.0732   0.1000 
31    H12      3.0430  -39.6129   22.8177 H       1  LIG   0.0789   0.1000 
32    C15      1.6390  -40.0610   21.0880 C.3     1  LIG  -0.1196  -0.2000 
33    H13      0.6832  -39.9283   21.5242 H       1  LIG   0.0807   0.1000 
34    H14      1.5292  -40.4423   20.1061 H       1  LIG   0.0733   0.1000 
@<TRIPOS>BOND
1     2     1     ar
2     3     2     1
3     4     2     ar
4     5     4     1
5     6     4     ar
6     7     6     ar
7     8     7     1
8     9     8     1
9     10    8     1
10    11    10    1
11    12    11    ar
12    13    12    1
13    14    12    ar
14    15    14    1
15    16    14    ar
16    17    16    1
17    18    16    ar
18    19    11    ar
19    19    18    ar
20    20    19    1
21    21    1     ar
22    21    7     ar
23    21    20    1
24    22    6     1
25    23    22    1
26    24    22    1
27    25    22    1
28    26    10    2
29    27    20    1
30    28    27    1
31    29    27    1
32    30    29    1
33    31    29    1
34    32    27    1
35    32    29    1
36    33    32    1
37    34    32    1
@<TRIPOS>SUBSTRUCTURE
1   LIG    1    
 
########## Name        : 1VRT.lig
########## Description : AM1BCC_CHARGES =  -0.0002 ORIGINAL_CHARGES =  -0.0000

@<TRIPOS>MOLECULE
1VRT.lig
34    37    1     0     0    
SMALL
USER_CHARGES
@<TRIPOS>ATOM
1     N1       4.0540  -36.9310   22.2210 N.ar    1  LIG  -0.6650  -0.6200 
2     C1       4.9660  -36.2380   22.9390 C.ar    1  LIG   0.3947   0.1600 
3     H1       6.0082  -36.2811   22.6707 H       1  LIG   0.0281   0.1500 
4     C2       4.6240  -35.4500   24.0360 C.ar    1  LIG  -0.2334  -0.1500 
5     H2       5.3884  -34.9151   24.5740 H       1  LIG   0.1480   0.1500 
6     C3       3.3050  -35.3690   24.4150 C.ar    1  LIG  -0.0698  -0.1435 
7     C4       2.3460  -36.0770   23.6860 C.ar    1  LIG  -0.0398   0.1170 
8     N2       0.9890  -36.0280   24.1030 N.am    1  LIG  -0.4596  -0.5470 
9     H3       0.7643  -35.9928   25.0860 H       1  LIG   0.3311   0.3700 
10    C5      -0.1450  -36.0180   23.4080 C.2     1  LIG   0.7361   0.5438 
11    C6      -0.1190  -36.0770   21.8860 C.ar    1  LIG  -0.2550   0.0862 
12    C7      -1.1230  -35.3990   21.1890 C.ar    1  LIG  -0.0321  -0.1500 
13    H4      -1.7552  -34.6955   21.7041 H       1  LIG   0.1623   0.1500 
14    C8      -1.2960  -35.6300   19.8690 C.ar    1  LIG  -0.2723  -0.1500 
15    H5      -2.0662  -35.1073   19.3273 H       1  LIG   0.1522   0.1500 
16    C9      -0.4670  -36.5450   19.2400 C.ar    1  LIG   0.4373   0.1600 
17    H6      -0.5947  -36.7554   18.1915 H       1  LIG   0.0280   0.1500 
18    N3       0.5220  -37.2120   19.8740 N.ar    1  LIG  -0.6893  -0.6200 
19    C10      0.7040  -36.9790   21.1800 C.ar    1  LIG   0.6480   0.4100 
20    N4       1.7670  -37.6730   21.8260 N.pl3   1  LIG  -0.6924  -0.3690 
21    C11      2.7540  -36.8570   22.5840 C.ar    1  LIG   0.5805   0.4100 
22    C12      2.9040  -34.5090   25.6010 C.3     1  LIG  -0.0620   0.1435 
23    H7       2.2235  -33.7630   25.2820 H       1  LIG   0.0570   0.0000 
24    H8       2.4436  -35.1154   26.3371 H       1  LIG   0.0495   0.0000 
25    H9       3.7654  -34.0491   26.0108 H       1  LIG   0.0519   0.0000 
26    O1      -1.2400  -35.9060   23.9770 O.2     1  LIG  -0.6361  -0.5700 
27    C13      2.3440  -38.7570   21.0360 C.3     1  LIG   0.1354   0.0690 
28    H10      3.1238  -38.3754   20.4296 H       1  LIG   0.0981   0.1000 
29    C14      2.9380  -39.8900   21.8010 C.3     1  LIG  -0.1181  -0.2000 
30    H11      3.8890  -40.1268   21.3997 H       1  LIG   0.0732   0.1000 
31    H12      3.0430  -39.6129   22.8177 H       1  LIG   0.0789   0.1000 
32    C15      1.6390  -40.0610   21.0880 C.3     1  LIG  -0.1196  -0.2000 
33    H13      0.6832  -39.9283   21.5242 H       1  LIG   0.0807   0.1000 
34    H14      1.5292  -40.4423   20.1061 H       1  LIG   0.0733   0.1000 
@<TRIPOS>BOND
1     2     1     ar
2     3     2     1
3     4     2     ar
4     5     4     1
5     6     4     ar
6     7     6     ar
7     8     7     1
8     9     8     1
9     10    8     1
10    11    10    1
11    12    11    ar
12    13    12    1
13    14    12    ar
14    15    14    1
15    16    14    ar
16    17    16    1
17    18    16    ar
18    19    11    ar
19    19    18    ar
20    20    19    1
21    21    1     ar
22    21    7     ar
23    21    20    1
24    22    6     1
25    23    22    1
26    24    22    1
27    25    22    1
28    26    10    2
29    27    20    1
30    28    27    1
31    29    27    1
32    30    29    1
33    31    29    1
34    32    27    1
35    32    29    1
36    33    32    1
37    34    32    1
@<TRIPOS>SUBSTRUCTURE
1   LIG    1    
 
########## Name        : 1VRT.lig
########## Description : AM1BCC_CHARGES =  -0.0002 ORIGINAL_CHARGES =  -0.0000

@<TRIPOS>MOLECULE
1VRT.lig
34    37    1     0     0    
SMALL
USER_CHARGES
@<TRIPOS>ATOM
1     N1       4.0540  -36.9310   22.2210 N.ar    1  LIG  -0.6650  -0.6200 
2     C1       4.9660  -36.2380   22.9390 C.ar    1  LIG   0.3947   0.1600 
3     H1       6.0082  -36.2811   22.6707 H       1  LIG   0.0281   0.1500 
4     C2       4.6240  -35.4500   24.0360 C.ar    1  LIG  -0.2334  -0.1500 
5     H2       5.3884  -34.9151   24.5740 H       1  LIG   0.1480   0.1500 
6     C3       3.3050  -35.3690   24.4150 C.ar    1  LIG  -0.0698  -0.1435 
7     C4       2.3460  -36.0770   23.6860 C.ar    1  LIG  -0.0398   0.1170 
8     N2       0.9890  -36.0280   24.1030 N.am    1  LIG  -0.4596  -0.5470 
9     H3       0.7643  -35.9928   25.0860 H       1  LIG   0.3311   0.3700 
10    C5      -0.1450  -36.0180   23.4080 C.2     1  LIG   0.7361   0.5438 
11    C6      -0.1190  -36.0770   21.8860 C.ar    1  LIG  -0.2550   0.0862 
12    C7      -1.1230  -35.3990   21.1890 C.ar    1  LIG  -0.0321  -0.1500 
13    H4      -1.7552  -34.6955   21.7041 H       1  LIG   0.1623   0.1500 
14    C8      -1.2960  -35.6300   19.8690 C.ar    1  LIG  -0.2723  -0.1500 
15    H5      -2.0662  -35.1073   19.3273 H       1  LIG   0.1522   0.1500 
16    C9      -0.4670  -36.5450   19.2400 C.ar    1  LIG   0.4373   0.1600 
17    H6      -0.5947  -36.7554   18.1915 H       1  LIG   0.0280   0.1500 
18    N3       0.5220  -37.2120   19.8740 N.ar    1  LIG  -0.6893  -0.6200 
19    C10      0.7040  -36.9790   21.1800 C.ar    1  LIG   0.6480   0.4100 
20    N4       1.7670  -37.6730   21.8260 N.pl3   1  LIG  -0.6924  -0.3690 
21    C11      2.7540  -36.8570   22.5840 C.ar    1  LIG   0.5805   0.4100 
22    C12      2.9040  -34.5090   25.6010 C.3     1  LIG  -0.0620   0.1435 
23    H7       2.2235  -33.7630   25.2820 H       1  LIG   0.0570   0.0000 
24    H8       2.4436  -35.1154   26.3371 H       1  LIG   0.0495   0.0000 
25    H9       3.7654  -34.0491   26.0108 H       1  LIG   0.0519   0.0000 
26    O1      -1.2400  -35.9060   23.9770 O.2     1  LIG  -0.6361  -0.5700 
27    C13      2.3440  -38.7570   21.0360 C.3     1  LIG   0.1354   0.0690 
28    H10      3.1238  -38.3754   20.4296 H       1  LIG   0.0981   0.1000 
29    C14      2.9380  -39.8900   21.8010 C.3     1  LIG  -0.1181  -0.2000 
30    H11      3.8890  -40.1268   21.3997 H       1  LIG   0.0732   0.1000 
31    H12      3.0430  -39.6129   22.8177 H       1  LIG   0.0789   0.1000 
32    C15      1.6390  -40.0610   21.0880 C.3     1  LIG  -0.1196  -0.2000 
33    H13      0.6832  -39.9283   21.5242 H       1  LIG   0.0807   0.1000 
34    H14      1.5292  -40.4423   20.1061 H       1  LIG   0.0733   0.1000 
@<TRIPOS>BOND
1     2     1     ar
2     3     2     1
3     4     2     ar
4     5     4     1
5     6     4     ar
6     7     6     ar
7     8     7     1
8     9     8     1
9     10    8     1
10    11    10    1
11    12    11    ar
12    13    12    1
13    14    12    ar
14    15    14    1
15    16    14    ar
16    17    16    1
17    18    16    ar
18    19    11    ar
19    19    18    ar
20    20    19    1
21    21    1     ar
22    21    7     ar
23    21    20    1
24    22    6     1
25    23    22    1
26    24    22    1
27    25    22    1
28    26    10    2
29    27    20    1
30    28    27    1
31    29    27    1
32    30    29    1
33    31    29    1
34    32    27    1
35    32    29    1
36    33    32    1
37    34    32    1
@<TRIPOS>SUBSTRUCTURE
1   LIG    1    
 
########## Name        : 1VRT.lig
########## Description : AM1BCC_CHARGES =  -0.0002 ORIGINAL_CHARGES =  -0.0000

@<TRIPOS>MOLECULE
1VRT.lig
34    37    1     0     0    
SMALL
USER_CHARGES
@<TRIPOS>ATOM
1     N1       4.0540  -36.9310   22.2210 N.ar    1  LIG  -0.6650  -0.6200 
2     C1       4.9660  -36.2380   22.9390 C.ar    1  LIG   0.3947   0.1600 
3     H1       6.0082  -36.2811   22.6707 H       1  LIG   0.0281   0.1500 
4     C2       4.6240  -35.4500   24.0360 C.ar    1  LIG  -0.2334  -0.1500 
5     H2       5.3884  -34.9151   24.5740 H       1  LIG   0.1480   0.1500 
6     C3       3.3050  -35.3690   24.4150 C.ar    1  LIG  -0.0698  -0.1435 
7     C4       2.3460  -36.0770   23.6860 C.ar    1  LIG  -0.0398   0.1170 
8     N2       0.9890  -36.0280   24.1030 N.am    1  LIG  -0.4596  -0.5470 
9     H3       0.7643  -35.9928   25.0860 H       1  LIG   0.3311   0.3700 
10    C5      -0.1450  -36.0180   23.4080 C.2     1  LIG   0.7361   0.5438 
11    C6      -0.1190  -36.0770   21.8860 C.ar    1  LIG  -0.2550   0.0862 
12    C7      -1.1230  -35.3990   21.1890 C.ar    1  LIG  -0.0321  -0.1500 
13    H4      -1.7552  -34.6955   21.7041 H       1  LIG   0.1623   0.1500 
14    C8      -1.2960  -35.6300   19.8690 C.ar    1  LIG  -0.2723  -0.1500 
15    H5      -2.0662  -35.1073   19.3273 H       1  LIG   0.1522   0.1500 
16    C9      -0.4670  -36.5450   19.2400 C.ar    1  LIG   0.4373   0.1600 
17    H6      -0.5947  -36.7554   18.1915 H       1  LIG   0.0280   0.1500 
18    N3       0.5220  -37.2120   19.8740 N.ar    1  LIG  -0.6893  -0.6200 
19    C10      0.7040  -36.9790   21.1800 C.ar    1  LIG   0.6480   0.4100 
20    N4       1.7670  -37.6730   21.8260 N.pl3   1  LIG  -0.6924  -0.3690 
21    C11      2.7540  -36.8570   22.5840 C.ar    1  LIG   0.5805   0.4100 
22    C12      2.9040  -34.5090   25.6010 C.3     1  LIG  -0.0620   0.1435 
23    H7       2.2235  -33.7630   25.2820 H       1  LIG   0.0570   0.0000 
24    H8       2.4436  -35.1154   26.3371 H       1  LIG   0.0495   0.0000 
25    H9       3.7654  -34.0491   26.0108 H       1  LIG   0.0519   0.0000 
26    O1      -1.2400  -35.9060   23.9770 O.2     1  LIG  -0.6361  -0.5700 
27    C13      2.3440  -38.7570   21.0360 C.3     1  LIG   0.1354   0.0690 
28    H10      3.1238  -38.3754   20.4296 H       1  LIG   0.0981   0.1000 
29    C14      2.9380  -39.8900   21.8010 C.3     1  LIG  -0.1181  -0.2000 
30    H11      3.8890  -40.1268   21.3997 H       1  LIG   0.0732   0.1000 
31    H12      3.0430  -39.6129   22.8177 H       1  LIG   0.0789   0.1000 
32    C15      1.6390  -40.0610   21.0880 C.3     1  LIG  -0.1196  -0.2000 
33    H13      0.6832  -39.9283   21.5242 H       1  LIG   0.0807   0.1000 
34    H14      1.5292  -40.4423   20.1061 H       1  LIG   0.0733   0.1000 
@<TRIPOS>BOND
1     2     1     ar
2     3     2     1
3     4     2     ar
4     5     4     1
5     6     4     ar
6     7     6     ar
7     8     7     1
8     9     8     1
9     10    8     1
10    11    10    1
11    12    11    ar
12    13    12    1
13    14    12    ar
14    15    14    1
15    16    14    ar
16    17    16    1
17    18    16    ar
18    19    11    ar
19    19    18    ar
20    20    19    1
21    21    1     ar
22    21    7     ar
23    21    20    1
24    22    6     1
25    23    22    1
26    24    22    1
27    25    22    1
28    26    10    2
29    27    20    1
30    28    27    1
31    29    27    1
32    30    29    1
33    31    29    1
34    32    27    1
35    32    29    1
36    33    32    1
37    34    32    1
@<TRIPOS>SUBSTRUCTURE
1   LIG    1    
 
########## Name        : 1VRT.lig
########## Description : AM1BCC_CHARGES =  -0.0002 ORIGINAL_CHARGES =  -0.0000

@<TRIPOS>MOLECULE
1VRT.lig
34    37    1     0     0    
SMALL
USER_CHARGES
@<TRIPOS>ATOM
1     N1       4.0540  -36.9310   22.2210 N.ar    1  LIG  -0.6650  -0.6200 
2     C1       4.9660  -36.2380   22.9390 C.ar    1  LIG   0.3947   0.1600 
3     H1       6.0082  -36.2811   22.6707 H       1  LIG   0.0281   0.1500 
4     C2       4.6240  -35.4500   24.0360 C.ar    1  LIG  -0.2334  -0.1500 
5     H2       5.3884  -34.9151   24.5740 H       1  LIG   0.1480   0.1500 
6     C3       3.3050  -35.3690   24.4150 C.ar    1  LIG  -0.0698  -0.1435 
7     C4       2.3460  -36.0770   23.6860 C.ar    1  LIG  -0.0398   0.1170 
8     N2       0.9890  -36.0280   24.1030 N.am    1  LIG  -0.4596  -0.5470 
9     H3       0.7643  -35.9928   25.0860 H       1  LIG   0.3311   0.3700 
10    C5      -0.1450  -36.0180   23.4080 C.2     1  LIG   0.7361   0.5438 
11    C6      -0.1190  -36.0770   21.8860 C.ar    1  LIG  -0.2550   0.0862 
12    C7      -1.1230  -35.3990   21.1890 C.ar    1  LIG  -0.0321  -0.1500 
13    H4      -1.7552  -34.6955   21.7041 H       1  LIG   0.1623   0.1500 
14    C8      -1.2960  -35.6300   19.8690 C.ar    1  LIG  -0.2723  -0.1500 
15    H5      -2.0662  -35.1073   19.3273 H       1  LIG   0.1522   0.1500 
16    C9      -0.4670  -36.5450   19.2400 C.ar    1  LIG   0.4373   0.1600 
17    H6      -0.5947  -36.7554   18.1915 H       1  LIG   0.0280   0.1500 
18    N3       0.5220  -37.2120   19.8740 N.ar    1  LIG  -0.6893  -0.6200 
19    C10      0.7040  -36.9790   21.1800 C.ar    1  LIG   0.6480   0.4100 
20    N4       1.7670  -37.6730   21.8260 N.pl3   1  LIG  -0.6924  -0.3690 
21    C11      2.7540  -36.8570   22.5840 C.ar    1  LIG   0.5805   0.4100 
22    C12      2.9040  -34.5090   25.6010 C.3     1  LIG  -0.0620   0.1435 
23    H7       2.2235  -33.7630   25.2820 H       1  LIG   0.0570   0.0000 
24    H8       2.4436  -35.1154   26.3371 H       1  LIG   0.0495   0.0000 
25    H9       3.7654  -34.0491   26.0108 H       1  LIG   0.0519   0.0000 
26    O1      -1.2400  -35.9060   23.9770 O.2     1  LIG  -0.6361  -0.5700 
27    C13      2.3440  -38.7570   21.0360 C.3     1  LIG   0.1354   0.0690 
28    H10      3.1238  -38.3754   20.4296 H       1  LIG   0.0981   0.1000 
29    C14      2.9380  -39.8900   21.8010 C.3     1  LIG  -0.1181  -0.2000 
30    H11      3.8890  -40.1268   21.3997 H       1  LIG   0.0732   0.1000 
31    H12      3.0430  -39.6129   22.8177 H       1  LIG   0.0789   0.1000 
32    C15      1.6390  -40.0610   21.0880 C.3     1  LIG  -0.1196  -0.2000 
33    H13      0.6832  -39.9283   21.5242 H       1  LIG   0.0807   0.1000 
34    H14      1.5292  -40.4423   20.1061 H       1  LIG   0.0733   0.1000 
@<TRIPOS>BOND
1     2     1     ar
2     3     2     1
3     4     2     ar
4     5     4     1
5     6     4     ar
6     7     6     ar
7     8     7     1
8     9     8     1
9     10    8     1
10    11    10    1
11    12    11    ar
12    13    12    1
13    14    12    ar
14    15    14    1
15    16    14    ar
16    17    16    1
17    18    16    ar
18    19    11    ar
19    19    18    ar
20    20    19    1
21    21    1     ar
22    21    7     ar
23    21    20    1
24    22    6     1
25    23    22    1
26    24    22    1
27    25    22    1
28    26    10    2
29    27    20    1
30    28    27    1
31    29    27    1
32    30    29    1
33    31    29    1
34    32    27    1
35    32    29    1
36    33    32    1
37    34    32    1
@<TRIPOS>SUBSTRUCTURE
1   LIG    1    
 
########## Name        : 1VRT.lig
########## Description : AM1BCC_CHARGES =  -0.0002 ORIGINAL_CHARGES =  -0.0000

@<TRIPOS>MOLECULE
1VRT.lig
34    37    1     0     0    
SMALL
USER_CHARGES
@<TRIPOS>ATOM
1     N1       4.0540  -36.9310   22.2210 N.ar    1  LIG  -0.6650  -0.6200 
2     C1       4.9660  -36.2380   22.9390 C.ar    1  LIG   0.3947   0.1600 
3     H1       6.0082  -36.2811   22.6707 H       1  LIG   0.0281   0.1500 
4     C2       4.6240  -35.4500   24.0360 C.ar    1  LIG  -0.2334  -0.1500 
5     H2       5.3884  -34.9151   24.5740 H       1  LIG   0.1480   0.1500 
6     C3       3.3050  -35.3690   24.4150 C.ar    1  LIG  -0.0698  -0.1435 
7     C4       2.3460  -36.0770   23.6860 C.ar    1  LIG  -0.0398   0.1170 
8     N2       0.9890  -36.0280   24.1030 N.am    1  LIG  -0.4596  -0.5470 
9     H3       0.7643  -35.9928   25.0860 H       1  LIG   0.3311   0.3700 
10    C5      -0.1450  -36.0180   23.4080 C.2     1  LIG   0.7361   0.5438 
11    C6      -0.1190  -36.0770   21.8860 C.ar    1  LIG  -0.2550   0.0862 
12    C7      -1.1230  -35.3990   21.1890 C.ar    1  LIG  -0.0321  -0.1500 
13    H4      -1.7552  -34.6955   21.7041 H       1  LIG   0.1623   0.1500 
14    C8      -1.2960  -35.6300   19.8690 C.ar    1  LIG  -0.2723  -0.1500 
15    H5      -2.0662  -35.1073   19.3273 H       1  LIG   0.1522   0.1500 
16    C9      -0.4670  -36.5450   19.2400 C.ar    1  LIG   0.4373   0.1600 
17    H6      -0.5947  -36.7554   18.1915 H       1  LIG   0.0280   0.1500 
18    N3       0.5220  -37.2120   19.8740 N.ar    1  LIG  -0.6893  -0.6200 
19    C10      0.7040  -36.9790   21.1800 C.ar    1  LIG   0.6480   0.4100 
20    N4       1.7670  -37.6730   21.8260 N.pl3   1  LIG  -0.6924  -0.3690 
21    C11      2.7540  -36.8570   22.5840 C.ar    1  LIG   0.5805   0.4100 
22    C12      2.9040  -34.5090   25.6010 C.3     1  LIG  -0.0620   0.1435 
23    H7       2.2235  -33.7630   25.2820 H       1  LIG   0.0570   0.0000 
24    H8       2.4436  -35.1154   26.3371 H       1  LIG   0.0495   0.0000 
25    H9       3.7654  -34.0491   26.0108 H       1  LIG   0.0519   0.0000 
26    O1      -1.2400  -35.9060   23.9770 O.2     1  LIG  -0.6361  -0.5700 
27    C13      2.3440  -38.7570   21.0360 C.3     1  LIG   0.1354   0.0690 
28    H10      3.1238  -38.3754   20.4296 H       1  LIG   0.0981   0.1000 
29    C14      2.9380  -39.8900   21.8010 C.3     1  LIG  -0.1181  -0.2000 
30    H11      3.8890  -40.1268   21.3997 H       1  LIG   0.0732   0.1000 
31    H12      3.0430  -39.6129   22.8177 H       1  LIG   0.0789   0.1000 
32    C15      1.6390  -40.0610   21.0880 C.3     1  LIG  -0.1196  -0.2000 
33    H13      0.6832  -39.9283   21.5242 H       1  LIG   0.0807   0.1000 
34    H14      1.5292  -40.4423   20.1061 H       1  LIG   0.0733   0.1000 
@<TRIPOS>BOND
1     2     1     ar
2     3     2     1
3     4     2     ar
4     5     4     1
5     6     4     ar
6     7     6     ar
7     8     7     1
8     9     8     1
9     10    8     1
10    11    10    1
11    12    11    ar
12    13    12    1
13    14    12    ar
14    15    14    1
15    16    14    ar
16    17    16    1
17    18    16    ar
18    19    11    ar
19    19    18    ar
20    20    19    1
21    21    1     ar
22    21    7     ar
23    21    20    1
24    22    6     1
25    23    22    1
26    24    22    1
27    25    22    1
28    26    10    2
29    27    20    1
30    28    27    1
31    29    27    1
32    30    29    1
33    31    29    1
34    32    27    1
35    32    29    1
36    33    32    1
37    34    32    1
@<TRIPOS>SUBSTRUCTURE
1   LIG    1    
 
########## Name        : 1VRT.lig
########## Description : AM1BCC_CHARGES =  -0.0002 ORIGINAL_CHARGES =  -0.0000

@<TRIPOS>MOLECULE
1VRT.lig
34    37    1     0     0    
SMALL
USER_CHARGES
@<TRIPOS>ATOM
1     N1       4.0540  -36.9310   22.2210 N.ar    1  LIG  -0.6650  -0.6200 
2     C1       4.9660  -36.2380   22.9390 C.ar    1  LIG   0.3947   0.1600 
3     H1       6.0082  -36.2811   22.6707 H       1  LIG   0.0281   0.1500 
4     C2       4.6240  -35.4500   24.0360 C.ar    1  LIG  -0.2334  -0.1500 
5     H2       5.3884  -34.9151   24.5740 H       1  LIG   0.1480   0.1500 
6     C3       3.3050  -35.3690   24.4150 C.ar    1  LIG  -0.0698  -0.1435 
7     C4       2.3460  -36.0770   23.6860 C.ar    1  LIG  -0.0398   0.1170 
8     N2       0.9890  -36.0280   24.1030 N.am    1  LIG  -0.4596  -0.5470 
9     H3       0.7643  -35.9928   25.0860 H       1  LIG   0.3311   0.3700 
10    C5      -0.1450  -36.0180   23.4080 C.2     1  LIG   0.7361   0.5438 
11    C6      -0.1190  -36.0770   21.8860 C.ar    1  LIG  -0.2550   0.0862 
12    C7      -1.1230  -35.3990   21.1890 C.ar    1  LIG  -0.0321  -0.1500 
13    H4      -1.7552  -34.6955   21.7041 H       1  LIG   0.1623   0.1500 
14    C8      -1.2960  -35.6300   19.8690 C.ar    1  LIG  -0.2723  -0.1500 
15    H5      -2.0662  -35.1073   19.3273 H       1  LIG   0.1522   0.1500 
16    C9      -0.4670  -36.5450   19.2400 C.ar    1  LIG   0.4373   0.1600 
17    H6      -0.5947  -36.7554   18.1915 H       1  LIG   0.0280   0.1500 
18    N3       0.5220  -37.2120   19.8740 N.ar    1  LIG  -0.6893  -0.6200 
19    C10      0.7040  -36.9790   21.1800 C.ar    1  LIG   0.6480   0.4100 
20    N4       1.7670  -37.6730   21.8260 N.pl3   1  LIG  -0.6924  -0.3690 
21    C11      2.7540  -36.8570   22.5840 C.ar    1  LIG   0.5805   0.4100 
22    C12      2.9040  -34.5090   25.6010 C.3     1  LIG  -0.0620   0.1435 
23    H7       2.2235  -33.7630   25.2820 H       1  LIG   0.0570   0.0000 
24    H8       2.4436  -35.1154   26.3371 H       1  LIG   0.0495   0.0000 
25    H9       3.7654  -34.0491   26.0108 H       1  LIG   0.0519   0.0000 
26    O1      -1.2400  -35.9060   23.9770 O.2     1  LIG  -0.6361  -0.5700 
27    C13      2.3440  -38.7570   21.0360 C.3     1  LIG   0.1354   0.0690 
28    H10      3.1238  -38.3754   20.4296 H       1  LIG   0.0981   0.1000 
29    C14      2.9380  -39.8900   21.8010 C.3     1  LIG  -0.1181  -0.2000 
30    H11      3.8890  -40.1268   21.3997 H       1  LIG   0.0732   0.1000 
31    H12      3.0430  -39.6129   22.8177 H       1  LIG   0.0789   0.1000 
32    C15      1.6390  -40.0610   21.0880 C.3     1  LIG  -0.1196  -0.2000 
33    H13      0.6832  -39.9283   21.5242 H       1  LIG   0.0807   0.1000 
34    H14      1.5292  -40.4423   20.1061 H       1  LIG   0.0733   0.1000 
@<TRIPOS>BOND
1     2     1     ar
2     3     2     1
3     4     2     ar
4     5     4     1
5     6     4     ar
6     7     6     ar
7     8     7     1
8     9     8     1
9     10    8     1
10    11    10    1
11    12    11    ar
12    13    12    1
13    14    12    ar
14    15    14    1
15    16    14    ar
16    17    16    1
17    18    16    ar
18    19    11    ar
19    19    18    ar
20    20    19    1
21    21    1     ar
22    21    7     ar
23    21    20    1
24    22    6     1
25    23    22    1
26    24    22    1
27    25    22    1
28    26    10    2
29    27    20    1
30    28    27    1
31    29    27    1
32    30    29    1
33    31    29    1
34    32    27    1
35    32    29    1
36    33    32    1
37    34    32    1
@<TRIPOS>SUBSTRUCTURE
1   LIG    1    
 
########## Name        : 1VRT.lig
########## Description : AM1BCC_CHARGES =  -0.0002 ORIGINAL_CHARGES =  -0.0000

@<TRIPOS>MOLECULE
1VRT.lig
34    37    1     0     0    
SMALL
USER_CHARGES
@<TRIPOS>ATOM
1     N1       4.0540  -36.9310   22.2210 N.ar    1  LIG  -0.6650  -0.6200 
2     C1       4.9660  -36.2380   22.9390 C.ar    1  LIG   0.3947   0.1600 
3     H1       6.0082  -36.2811   22.6707 H       1  LIG   0.0281   0.1500 
4     C2       4.6240  -35.4500   24.0360 C.ar    1  LIG  -0.2334  -0.1500 
5     H2       5.3884  -34.9151   24.5740 H       1  LIG   0.1480   0.1500 
6     C3       3.3050  -35.3690   24.4150 C.ar    1  LIG  -0.0698  -0.1435 
7     C4       2.3460  -36.0770   23.6860 C.ar    1  LIG  -0.0398   0.1170 
8     N2       0.9890  -36.0280   24.1030 N.am    1  LIG  -0.4596  -0.5470 
9     H3       0.7643  -35.9928   25.0860 H       1  LIG   0.3311   0.3700 
10    C5      -0.1450  -36.0180   23.4080 C.2     1  LIG   0.7361   0.5438 
11    C6      -0.1190  -36.0770   21.8860 C.ar    1  LIG  -0.2550   0.0862 
12    C7      -1.1230  -35.3990   21.1890 C.ar    1  LIG  -0.0321  -0.1500 
13    H4      -1.7552  -34.6955   21.7041 H       1  LIG   0.1623   0.1500 
14    C8      -1.2960  -35.6300   19.8690 C.ar    1  LIG  -0.2723  -0.1500 
15    H5      -2.0662  -35.1073   19.3273 H       1  LIG   0.1522   0.1500 
16    C9      -0.4670  -36.5450   19.2400 C.ar    1  LIG   0.4373   0.1600 
17    H6      -0.5947  -36.7554   18.1915 H       1  LIG   0.0280   0.1500 
18    N3       0.5220  -37.2120   19.8740 N.ar    1  LIG  -0.6893  -0.6200 
19    C10      0.7040  -36.9790   21.1800 C.ar    1  LIG   0.6480   0.4100 
20    N4       1.7670  -37.6730   21.8260 N.pl3   1  LIG  -0.6924  -0.3690 
21    C11      2.7540  -36.8570   22.5840 C.ar    1  LIG   0.5805   0.4100 
22    C12      2.9040  -34.5090   25.6010 C.3     1  LIG  -0.0620   0.1435 
23    H7       2.2235  -33.7630   25.2820 H       1  LIG   0.0570   0.0000 
24    H8       2.4436  -35.1154   26.3371 H       1  LIG   0.0495   0.0000 
25    H9       3.7654  -34.0491   26.0108 H       1  LIG   0.0519   0.0000 
26    O1      -1.2400  -35.9060   23.9770 O.2     1  LIG  -0.6361  -0.5700 
27    C13      2.3440  -38.7570   21.0360 C.3     1  LIG   0.1354   0.0690 
28    H10      3.1238  -38.3754   20.4296 H       1  LIG   0.0981   0.1000 
29    C14      2.9380  -39.8900   21.8010 C.3     1  LIG  -0.1181  -0.2000 
30    H11      3.8890  -40.1268   21.3997 H       1  LIG   0.0732   0.1000 
31    H12      3.0430  -39.6129   22.8177 H       1  LIG   0.0789   0.1000 
32    C15      1.6390  -40.0610   21.0880 C.3     1  LIG  -0.1196  -0.2000 
33    H13      0.6832  -39.9283   21.5242 H       1  LIG   0.0807   0.1000 
34    H14      1.5292  -40.4423   20.1061 H       1  LIG   0.0733   0.1000 
@<TRIPOS>BOND
1     2     1     ar
2     3     2     1
3     4     2     ar
4     5     4     1
5     6     4     ar
6     7     6     ar
7     8     7     1
8     9     8     1
9     10    8     1
10    11    10    1
11    12    11    ar
12    13    12    1
13    14    12    ar
14    15    14    1
15    16    14    ar
16    17    16    1
17    18    16    ar
18    19    11    ar
19    19    18    ar
20    20    19    1
21    21    1     ar
22    21    7     ar
23    21    20    1
24    22    6     1
25    23    22    1
26    24    22    1
27    25    22    1
28    26    10    2
29    27    20    1
30    28    27    1
31    29    27    1
32    30    29    1
33    31    29    1
34    32    27    1
35    32    29    1
36    33    32    1
37    34    32    1
@<TRIPOS>SUBSTRUCTURE
1   LIG    1    
 
########## Name        : 1VRT.lig
########## Description : AM1BCC_CHARGES =  -0.0002 ORIGINAL_CHARGES =  -0.0000

@<TRIPOS>MOLECULE
1VRT.lig
34    37    1     0     0    
SMALL
USER_CHARGES
@<TRIPOS>ATOM
1     N1       4.0540  -36.9310   22.2210 N.ar    1  LIG  -0.6650  -0.6200 
2     C1       4.9660  -36.2380   22.9390 C.ar    1  LIG   0.3947   0.1600 
3     H1       6.0082  -36.2811   22.6707 H       1  LIG   0.0281   0.1500 
4     C2       4.6240  -35.4500   24.0360 C.ar    1  LIG  -0.2334  -0.1500 
5     H2       5.3884  -34.9151   24.5740 H       1  LIG   0.1480   0.1500 
6     C3       3.3050  -35.3690   24.4150 C.ar    1  LIG  -0.0698  -0.1435 
7     C4       2.3460  -36.0770   23.6860 C.ar    1  LIG  -0.0398   0.1170 
8     N2       0.9890  -36.0280   24.1030 N.am    1  LIG  -0.4596  -0.5470 
9     H3       0.7643  -35.9928   25.0860 H       1  LIG   0.3311   0.3700 
10    C5      -0.1450  -36.0180   23.4080 C.2     1  LIG   0.7361   0.5438 
11    C6      -0.1190  -36.0770   21.8860 C.ar    1  LIG  -0.2550   0.0862 
12    C7      -1.1230  -35.3990   21.1890 C.ar    1  LIG  -0.0321  -0.1500 
13    H4      -1.7552  -34.6955   21.7041 H       1  LIG   0.1623   0.1500 
14    C8      -1.2960  -35.6300   19.8690 C.ar    1  LIG  -0.2723  -0.1500 
15    H5      -2.0662  -35.1073   19.3273 H       1  LIG   0.1522   0.1500 
16    C9      -0.4670  -36.5450   19.2400 C.ar    1  LIG   0.4373   0.1600 
17    H6      -0.5947  -36.7554   18.1915 H       1  LIG   0.0280   0.1500 
18    N3       0.5220  -37.2120   19.8740 N.ar    1  LIG  -0.6893  -0.6200 
19    C10      0.7040  -36.9790   21.1800 C.ar    1  LIG   0.6480   0.4100 
20    N4       1.7670  -37.6730   21.8260 N.pl3   1  LIG  -0.6924  -0.3690 
21    C11      2.7540  -36.8570   22.5840 C.ar    1  LIG   0.5805   0.4100 
22    C12      2.9040  -34.5090   25.6010 C.3     1  LIG  -0.0620   0.1435 
23    H7       2.2235  -33.7630   25.2820 H       1  LIG   0.0570   0.0000 
24    H8       2.4436  -35.1154   26.3371 H       1  LIG   0.0495   0.0000 
25    H9       3.7654  -34.0491   26.0108 H       1  LIG   0.0519   0.0000 
26    O1      -1.2400  -35.9060   23.9770 O.2     1  LIG  -0.6361  -0.5700 
27    C13      2.3440  -38.7570   21.0360 C.3     1  LIG   0.1354   0.0690 
28    H10      3.1238  -38.3754   20.4296 H       1  LIG   0.0981   0.1000 
29    C14      2.9380  -39.8900   21.8010 C.3     1  LIG  -0.1181  -0.2000 
30    H11      3.8890  -40.1268   21.3997 H       1  LIG   0.0732   0.1000 
31    H12      3.0430  -39.6129   22.8177 H       1  LIG   0.0789   0.1000 
32    C15      1.6390  -40.0610   21.0880 C.3     1  LIG  -0.1196  -0.2000 
33    H13      0.6832  -39.9283   21.5242 H       1  LIG   0.0807   0.1000 
34    H14      1.5292  -40.4423   20.1061 H       1  LIG   0.0733   0.1000 
@<TRIPOS>BOND
1     2     1     ar
2     3     2     1
3     4     2     ar
4     5     4     1
5     6     4     ar
6     7     6     ar
7     8     7     1
8     9     8     1
9     10    8     1
10    11    10    1
11    12    11    ar
12    13    12    1
13    14    12    ar
14    15    14    1
15    16    14    ar
16    17    16    1
17    18    16    ar
18    19    11    ar
19    19    18    ar
20    20    19    1
21    21    1     ar
22    21    7     ar
23    21    20    1
24    22    6     1
25    23    22    1
26    24    22    1
27    25    22    1
28    26    10    2
29    27    20    1
30    28    27    1
31    29    27    1
32    30    29    1
33    31    29    1
34    32    27    1
35    32    29    1
36    33    32    1
37    34    32    1
@<TRIPOS>SUBSTRUCTURE
1   LIG    1    
 
########## Name        : 1VRT.lig
########## Description : AM1BCC_CHARGES =  -0.0002 ORIGINAL_CHARGES =  -0.0000

@<TRIPOS>MOLECULE
1VRT.lig
34    37    1     0     0    
SMALL
USER_CHARGES
@<TRIPOS>ATOM
1     N1       4.0540  -36.9310   22.2210 N.ar    1  LIG  -0.6650  -0.6200 
2     C1       4.9660  -36.2380   22.9390 C.ar    1  LIG   0.3947   0.1600 
3     H1       6.0082  -36.2811   22.6707 H       1  LIG   0.0281   0.1500 
4     C2       4.6240  -35.4500   24.0360 C.ar    1  LIG  -0.2334  -0.1500 
5     H2       5.3884  -34.9151   24.5740 H       1  LIG   0.1480   0.1500 
6     C3       3.3050  -35.3690   24.4150 C.ar    1  LIG  -0.0698  -0.1435 
7     C4       2.3460  -36.0770   23.6860 C.ar    1  LIG  -0.0398   0.1170 
8     N2       0.9890  -36.0280   24.1030 N.am    1  LIG  -0.4596  -0.5470 
9     H3       0.7643  -35.9928   25.0860 H       1  LIG   0.3311   0.3700 
10    C5      -0.1450  -36.0180   23.4080 C.2     1  LIG   0.7361   0.5438 
11    C6      -0.1190  -36.0770   21.8860 C.ar    1  LIG  -0.2550   0.0862 
12    C7      -1.1230  -35.3990   21.1890 C.ar    1  LIG  -0.0321  -0.1500 
13    H4      -1.7552  -34.6955   21.7041 H       1  LIG   0.1623   0.1500 
14    C8      -1.2960  -35.6300   19.8690 C.ar    1  LIG  -0.2723  -0.1500 
15    H5      -2.0662  -35.1073   19.3273 H       1  LIG   0.1522   0.1500 
16    C9      -0.4670  -36.5450   19.2400 C.ar    1  LIG   0.4373   0.1600 
17    H6      -0.5947  -36.7554   18.1915 H       1  LIG   0.0280   0.1500 
18    N3       0.5220  -37.2120   19.8740 N.ar    1  LIG  -0.6893  -0.6200 
19    C10      0.7040  -36.9790   21.1800 C.ar    1  LIG   0.6480   0.4100 
20    N4       1.7670  -37.6730   21.8260 N.pl3   1  LIG  -0.6924  -0.3690 
21    C11      2.7540  -36.8570   22.5840 C.ar    1  LIG   0.5805   0.4100 
22    C12      2.9040  -34.5090   25.6010 C.3     1  LIG  -0.0620   0.1435 
23    H7       2.2235  -33.7630   25.2820 H       1  LIG   0.0570   0.0000 
24    H8       2.4436  -35.1154   26.3371 H       1  LIG   0.0495   0.0000 
25    H9       3.7654  -34.0491   26.0108 H       1  LIG   0.0519   0.0000 
26    O1      -1.2400  -35.9060   23.9770 O.2     1  LIG  -0.6361  -0.5700 
27    C13      2.3440  -38.7570   21.0360 C.3     1  LIG   0.1354   0.0690 
28    H10      3.1238  -38.3754   20.4296 H       1  LIG   0.0981   0.1000 
29    C14      2.9380  -39.8900   21.8010 C.3     1  LIG  -0.1181  -0.2000 
30    H11      3.8890  -40.1268   21.3997 H       1  LIG   0.0732   0.1000 
31    H12      3.0430  -39.6129   22.8177 H       1  LIG   0.0789   0.1000 
32    C15      1.6390  -40.0610   21.0880 C.3     1  LIG  -0.1196  -0.2000 
33    H13      0.6832  -39.9283   21.5242 H       1  LIG   0.0807   0.1000 
34    H14      1.5292  -40.4423   20.1061 H       1  LIG   0.0733   0.1000 
@<TRIPOS>BOND
1     2     1     ar
2     3     2     1
3     4     2     ar
4     5     4     1
5     6     4     ar
6     7     6     ar
7     8     7     1
8     9     8     1
9     10    8     1
10    11    10    1
11    12    11    ar
12    13    12    1
13    14    12    ar
14    15    14    1
15    16    14    ar
16    17    16    1
17    18    16    ar
18    19    11    ar
19    19    18    ar
20    20    19    1
21    21    1     ar
22    21    7     ar
23    21    20    1
24    22    6     1
25    23    22    1
26    24    22    1
27    25    22    1
28    26    10    2
29    27    20    1
30    28    27    1
31    29    27    1
32    30    29    1
33    31    29    1
34    32    27    1
35    32    29    1
36    33    32    1
37    34    32    1
@<TRIPOS>SUBSTRUCTURE
1   LIG    1    
 
########## Name        : 1VRT.lig
########## Description : AM1BCC_CHARGES =  -0.0002 ORIGINAL_CHARGES =  -0.0000

@<TRIPOS>MOLECULE
1VRT.lig
34    37    1     0     0    
SMALL
USER_CHARGES
@<TRIPOS>ATOM
1     N1       4.0540  -36.9310   22.2210 N.ar    1  LIG  -0.6650  -0.6200 
2     C1       4.9660  -36.2380   22.9390 C.ar    1  LIG   0.3947   0.1600 
3     H1       6.0082  -36.2811   22.6707 H       1  LIG   0.0281   0.1500 
4     C2       4.6240  -35.4500   24.0360 C.ar    1  LIG  -0.2334  -0.1500 
5     H2       5.3884  -34.9151   24.5740 H       1  LIG   0.1480   0.1500 
6     C3       3.3050  -35.3690   24.4150 C.ar    1  LIG  -0.0698  -0.1435 
7     C4       2.3460  -36.0770   23.6860 C.ar    1  LIG  -0.0398   0.1170 
8     N2       0.9890  -36.0280   24.1030 N.am    1  LIG  -0.4596  -0.5470 
9     H3       0.7643  -35.9928   25.0860 H       1  LIG   0.3311   0.3700 
10    C5      -0.1450  -36.0180   23.4080 C.2     1  LIG   0.7361   0.5438 
11    C6      -0.1190  -36.0770   21.8860 C.ar    1  LIG  -0.2550   0.0862 
12    C7      -1.1230  -35.3990   21.1890 C.ar    1  LIG  -0.0321  -0.1500 
13    H4      -1.7552  -34.6955   21.7041 H       1  LIG   0.1623   0.1500 
14    C8      -1.2960  -35.6300   19.8690 C.ar    1  LIG  -0.2723  -0.1500 
15    H5      -2.0662  -35.1073   19.3273 H       1  LIG   0.1522   0.1500 
16    C9      -0.4670  -36.5450   19.2400 C.ar    1  LIG   0.4373   0.1600 
17    H6      -0.5947  -36.7554   18.1915 H       1  LIG   0.0280   0.1500 
18    N3       0.5220  -37.2120   19.8740 N.ar    1  LIG  -0.6893  -0.6200 
19    C10      0.7040  -36.9790   21.1800 C.ar    1  LIG   0.6480   0.4100 
20    N4       1.7670  -37.6730   21.8260 N.pl3   1  LIG  -0.6924  -0.3690 
21    C11      2.7540  -36.8570   22.5840 C.ar    1  LIG   0.5805   0.4100 
22    C12      2.9040  -34.5090   25.6010 C.3     1  LIG  -0.0620   0.1435 
23    H7       2.2235  -33.7630   25.2820 H       1  LIG   0.0570   0.0000 
24    H8       2.4436  -35.1154   26.3371 H       1  LIG   0.0495   0.0000 
25    H9       3.7654  -34.0491   26.0108 H       1  LIG   0.0519   0.0000 
26    O1      -1.2400  -35.9060   23.9770 O.2     1  LIG  -0.6361  -0.5700 
27    C13      2.3440  -38.7570   21.0360 C.3     1  LIG   0.1354   0.0690 
28    H10      3.1238  -38.3754   20.4296 H       1  LIG   0.0981   0.1000 
29    C14      2.9380  -39.8900   21.8010 C.3     1  LIG  -0.1181  -0.2000 
30    H11      3.8890  -40.1268   21.3997 H       1  LIG   0.0732   0.1000 
31    H12      3.0430  -39.6129   22.8177 H       1  LIG   0.0789   0.1000 
32    C15      1.6390  -40.0610   21.0880 C.3     1  LIG  -0.1196  -0.2000 
33    H13      0.6832  -39.9283   21.5242 H       1  LIG   0.0807   0.1000 
34    H14      1.5292  -40.4423   20.1061 H       1  LIG   0.0733   0.1000 
@<TRIPOS>BOND
1     2     1     ar
2     3     2     1
3     4     2     ar
4     5     4     1
5     6     4     ar
6     7     6     ar
7     8     7     1
8     9     8     1
9     10    8     1
10    11    10    1
11    12    11    ar
12    13    12    1
13    14    12    ar
14    15    14    1
15    16    14    ar
16    17    16    1
17    18    16    ar
18    19    11    ar
19    19    18    ar
20    20    19    1
21    21    1     ar
22    21    7     ar
23    21    20    1
24    22    6     1
25    23    22    1
26    24    22    1
27    25    22    1
28    26    10    2
29    27    20    1
30    28    27    1
31    29    27    1
32    30    29    1
33    31    29    1
34    32    27    1
35    32    29    1
36    33    32    1
37    34    32    1
@<TRIPOS>SUBSTRUCTURE
1   LIG    1    
 
########## Name        : 1VRT.lig
########## Description : AM1BCC_CHARGES =  -0.0002 ORIGINAL_CHARGES =  -0.0000

@<TRIPOS>MOLECULE
1VRT.lig
34    37    1     0     0    
SMALL
USER_CHARGES
@<TRIPOS>ATOM
1     N1       4.0540  -36.9310   22.2210 N.ar    1  LIG  -0.6650  -0.6200 
2     C1       4.9660  -36.2380   22.9390 C.ar    1  LIG   0.3947   0.1600 
3     H1       6.0082  -36.2811   22.6707 H       1  LIG   0.0281   0.1500 
4     C2       4.6240  -35.4500   24.0360 C.ar    1  LIG  -0.2334  -0.1500 
5     H2       5.3884  -34.9151   24.5740 H       1  LIG   0.1480   0.1500 
6     C3       3.3050  -35.3690   24.4150 C.ar    1  LIG  -0.0698  -0.1435 
7     C4       2.3460  -36.0770   23.6860 C.ar    1  LIG  -0.0398   0.1170 
8     N2       0.9890  -36.0280   24.1030 N.am    1  LIG  -0.4596  -0.5470 
9     H3       0.7643  -35.9928   25.0860 H       1  LIG   0.3311   0.3700 
10    C5      -0.1450  -36.0180   23.4080 C.2     1  LIG   0.7361   0.5438 
11    C6      -0.1190  -36.0770   21.8860 C.ar    1  LIG  -0.2550   0.0862 
12    C7      -1.1230  -35.3990   21.1890 C.ar    1  LIG  -0.0321  -0.1500 
13    H4      -1.7552  -34.6955   21.7041 H       1  LIG   0.1623   0.1500 
14    C8      -1.2960  -35.6300   19.8690 C.ar    1  LIG  -0.2723  -0.1500 
15    H5      -2.0662  -35.1073   19.3273 H       1  LIG   0.1522   0.1500 
16    C9      -0.4670  -36.5450   19.2400 C.ar    1  LIG   0.4373   0.1600 
17    H6      -0.5947  -36.7554   18.1915 H       1  LIG   0.0280   0.1500 
18    N3       0.5220  -37.2120   19.8740 N.ar    1  LIG  -0.6893  -0.6200 
19    C10      0.7040  -36.9790   21.1800 C.ar    1  LIG   0.6480   0.4100 
20    N4       1.7670  -37.6730   21.8260 N.pl3   1  LIG  -0.6924  -0.3690 
21    C11      2.7540  -36.8570   22.5840 C.ar    1  LIG   0.5805   0.4100 
22    C12      2.9040  -34.5090   25.6010 C.3     1  LIG  -0.0620   0.1435 
23    H7       2.2235  -33.7630   25.2820 H       1  LIG   0.0570   0.0000 
24    H8       2.4436  -35.1154   26.3371 H       1  LIG   0.0495   0.0000 
25    H9       3.7654  -34.0491   26.0108 H       1  LIG   0.0519   0.0000 
26    O1      -1.2400  -35.9060   23.9770 O.2     1  LIG  -0.6361  -0.5700 
27    C13      2.3440  -38.7570   21.0360 C.3     1  LIG   0.1354   0.0690 
28    H10      3.1238  -38.3754   20.4296 H       1  LIG   0.0981   0.1000 
29    C14      2.9380  -39.8900   21.8010 C.3     1  LIG  -0.1181  -0.2000 
30    H11      3.8890  -40.1268   21.3997 H       1  LIG   0.0732   0.1000 
31    H12      3.0430  -39.6129   22.8177 H       1  LIG   0.0789   0.1000 
32    C15      1.6390  -40.0610   21.0880 C.3     1  LIG  -0.1196  -0.2000 
33    H13      0.6832  -39.9283   21.5242 H       1  LIG   0.0807   0.1000 
34    H14      1.5292  -40.4423   20.1061 H       1  LIG   0.0733   0.1000 
@<TRIPOS>BOND
1     2     1     ar
2     3     2     1
3     4     2     ar
4     5     4     1
5     6     4     ar
6     7     6     ar
7     8     7     1
8     9     8     1
9     10    8     1
10    11    10    1
11    12    11    ar
12    13    12    1
13    14    12    ar
14    15    14    1
15    16    14    ar
16    17    16    1
17    18    16    ar
18    19    11    ar
19    19    18    ar
20    20    19    1
21    21    1     ar
22    21    7     ar
23    21    20    1
24    22    6     1
25    23    22    1
26    24    22    1
27    25    22    1
28    26    10    2
29    27    20    1
30    28    27    1
31    29    27    1
32    30    29    1
33    31    29    1
34    32    27    1
35    32    29    1
36    33    32    1
37    34    32    1
@<TRIPOS>SUBSTRUCTURE
1   LIG    1    
 
########## Name        : 1VRT.lig
########## Description : AM1BCC_CHARGES =  -0.0002 ORIGINAL_CHARGES =  -0.0000

@<TRIPOS>MOLECULE
1VRT.lig
34    37    1     0     0    
SMALL
USER_CHARGES
@<TRIPOS>ATOM
1     N1       4.0540  -36.9310   22.2210 N.ar    1  LIG  -0.6650  -0.6200 
2     C1       4.9660  -36.2380   22.9390 C.ar    1  LIG   0.3947   0.1600 
3     H1       6.0082  -36.2811   22.6707 H       1  LIG   0.0281   0.1500 
4     C2       4.6240  -35.4500   24.0360 C.ar    1  LIG  -0.2334  -0.1500 
5     H2       5.3884  -34.9151   24.5740 H       1  LIG   0.1480   0.1500 
6     C3       3.3050  -35.3690   24.4150 C.ar    1  LIG  -0.0698  -0.1435 
7     C4       2.3460  -36.0770   23.6860 C.ar    1  LIG  -0.0398   0.1170 
8     N2       0.9890  -36.0280   24.1030 N.am    1  LIG  -0.4596  -0.5470 
9     H3       0.7643  -35.9928   25.0860 H       1  LIG   0.3311   0.3700 
10    C5      -0.1450  -36.0180   23.4080 C.2     1  LIG   0.7361   0.5438 
11    C6      -0.1190  -36.0770   21.8860 C.ar    1  LIG  -0.2550   0.0862 
12    C7      -1.1230  -35.3990   21.1890 C.ar    1  LIG  -0.0321  -0.1500 
13    H4      -1.7552  -34.6955   21.7041 H       1  LIG   0.1623   0.1500 
14    C8      -1.2960  -35.6300   19.8690 C.ar    1  LIG  -0.2723  -0.1500 
15    H5      -2.0662  -35.1073   19.3273 H       1  LIG   0.1522   0.1500 
16    C9      -0.4670  -36.5450   19.2400 C.ar    1  LIG   0.4373   0.1600 
17    H6      -0.5947  -36.7554   18.1915 H       1  LIG   0.0280   0.1500 
18    N3       0.5220  -37.2120   19.8740 N.ar    1  LIG  -0.6893  -0.6200 
19    C10      0.7040  -36.9790   21.1800 C.ar    1  LIG   0.6480   0.4100 
20    N4       1.7670  -37.6730   21.8260 N.pl3   1  LIG  -0.6924  -0.3690 
21    C11      2.7540  -36.8570   22.5840 C.ar    1  LIG   0.5805   0.4100 
22    C12      2.9040  -34.5090   25.6010 C.3     1  LIG  -0.0620   0.1435 
23    H7       2.2235  -33.7630   25.2820 H       1  LIG   0.0570   0.0000 
24    H8       2.4436  -35.1154   26.3371 H       1  LIG   0.0495   0.0000 
25    H9       3.7654  -34.0491   26.0108 H       1  LIG   0.0519   0.0000 
26    O1      -1.2400  -35.9060   23.9770 O.2     1  LIG  -0.6361  -0.5700 
27    C13      2.3440  -38.7570   21.0360 C.3     1  LIG   0.1354   0.0690 
28    H10      3.1238  -38.3754   20.4296 H       1  LIG   0.0981   0.1000 
29    C14      2.9380  -39.8900   21.8010 C.3     1  LIG  -0.1181  -0.2000 
30    H11      3.8890  -40.1268   21.3997 H       1  LIG   0.0732   0.1000 
31    H12      3.0430  -39.6129   22.8177 H       1  LIG   0.0789   0.1000 
32    C15      1.6390  -40.0610   21.0880 C.3     1  LIG  -0.1196  -0.2000 
33    H13      0.6832  -39.9283   21.5242 H       1  LIG   0.0807   0.1000 
34    H14      1.5292  -40.4423   20.1061 H       1  LIG   0.0733   0.1000 
@<TRIPOS>BOND
1     2     1     ar
2     3     2     1
3     4     2     ar
4     5     4     1
5     6     4     ar
6     7     6     ar
7     8     7     1
8     9     8     1
9     10    8     1
10    11    10    1
11    12    11    ar
12    13    12    1
13    14    12    ar
14    15    14    1
15    16    14    ar
16    17    16    1
17    18    16    ar
18    19    11    ar
19    19    18    ar
20    20    19    1
21    21    1     ar
22    21    7     ar
23    21    20    1
24    22    6     1
25    23    22    1
26    24    22    1
27    25    22    1
28    26    10    2
29    27    20    1
30    28    27    1
31    29    27    1
32    30    29    1
33    31    29    1
34    32    27    1
35    32    29    1
36    33    32    1
37    34    32    1
@<TRIPOS>SUBSTRUCTURE
1   LIG    1    
 
########## Name        : 1VRT.lig
########## Description : AM1BCC_CHARGES =  -0.0002 ORIGINAL_CHARGES =  -0.0000

@<TRIPOS>MOLECULE
1VRT.lig
34    37    1     0     0    
SMALL
USER_CHARGES
@<TRIPOS>ATOM
1     N1       4.0540  -36.9310   22.2210 N.ar    1  LIG  -0.6650  -0.6200 
2     C1       4.9660  -36.2380   22.9390 C.ar    1  LIG   0.3947   0.1600 
3     H1       6.0082  -36.2811   22.6707 H       1  LIG   0.0281   0.1500 
4     C2       4.6240  -35.4500   24.0360 C.ar    1  LIG  -0.2334  -0.1500 
5     H2       5.3884  -34.9151   24.5740 H       1  LIG   0.1480   0.1500 
6     C3       3.3050  -35.3690   24.4150 C.ar    1  LIG  -0.0698  -0.1435 
7     C4       2.3460  -36.0770   23.6860 C.ar    1  LIG  -0.0398   0.1170 
8     N2       0.9890  -36.0280   24.1030 N.am    1  LIG  -0.4596  -0.5470 
9     H3       0.7643  -35.9928   25.0860 H       1  LIG   0.3311   0.3700 
10    C5      -0.1450  -36.0180   23.4080 C.2     1  LIG   0.7361   0.5438 
11    C6      -0.1190  -36.0770   21.8860 C.ar    1  LIG  -0.2550   0.0862 
12    C7      -1.1230  -35.3990   21.1890 C.ar    1  LIG  -0.0321  -0.1500 
13    H4      -1.7552  -34.6955   21.7041 H       1  LIG   0.1623   0.1500 
14    C8      -1.2960  -35.6300   19.8690 C.ar    1  LIG  -0.2723  -0.1500 
15    H5      -2.0662  -35.1073   19.3273 H       1  LIG   0.1522   0.1500 
16    C9      -0.4670  -36.5450   19.2400 C.ar    1  LIG   0.4373   0.1600 
17    H6      -0.5947  -36.7554   18.1915 H       1  LIG   0.0280   0.1500 
18    N3       0.5220  -37.2120   19.8740 N.ar    1  LIG  -0.6893  -0.6200 
19    C10      0.7040  -36.9790   21.1800 C.ar    1  LIG   0.6480   0.4100 
20    N4       1.7670  -37.6730   21.8260 N.pl3   1  LIG  -0.6924  -0.3690 
21    C11      2.7540  -36.8570   22.5840 C.ar    1  LIG   0.5805   0.4100 
22    C12      2.9040  -34.5090   25.6010 C.3     1  LIG  -0.0620   0.1435 
23    H7       2.2235  -33.7630   25.2820 H       1  LIG   0.0570   0.0000 
24    H8       2.4436  -35.1154   26.3371 H       1  LIG   0.0495   0.0000 
25    H9       3.7654  -34.0491   26.0108 H       1  LIG   0.0519   0.0000 
26    O1      -1.2400  -35.9060   23.9770 O.2     1  LIG  -0.6361  -0.5700 
27    C13      2.3440  -38.7570   21.0360 C.3     1  LIG   0.1354   0.0690 
28    H10      3.1238  -38.3754   20.4296 H       1  LIG   0.0981   0.1000 
29    C14      2.9380  -39.8900   21.8010 C.3     1  LIG  -0.1181  -0.2000 
30    H11      3.8890  -40.1268   21.3997 H       1  LIG   0.0732   0.1000 
31    H12      3.0430  -39.6129   22.8177 H       1  LIG   0.0789   0.1000 
32    C15      1.6390  -40.0610   21.0880 C.3     1  LIG  -0.1196  -0.2000 
33    H13      0.6832  -39.9283   21.5242 H       1  LIG   0.0807   0.1000 
34    H14      1.5292  -40.4423   20.1061 H       1  LIG   0.0733   0.1000 
@<TRIPOS>BOND
1     2     1     ar
2     3     2     1
3     4     2     ar
4     5     4     1
5     6     4     ar
6     7     6     ar
7     8     7     1
8     9     8     1
9     10    8     1
10    11    10    1
11    12    11    ar
12    13    12    1
13    14    12    ar
14    15    14    1
15    16    14    ar
16    17    16    1
17    18    16    ar
18    19    11    ar
19    19    18    ar
20    20    19    1
21    21    1     ar
22    21    7     ar
23    21    20    1
24    22    6     1
25    23    22    1
26    24    22    1
27    25    22    1
28    26    10    2
29    27    20    1
30    28    27    1
31    29    27    1
32    30    29    1
33    31    29    1
34    32    27    1
35    32    29    1
36    33    32    1
37    34    32    1
@<TRIPOS>SUBSTRUCTURE
1   LIG    1    
 
########## Name        : 1VRT.lig
########## Description : AM1BCC_CHARGES =  -0.0002 ORIGINAL_CHARGES =  -0.0000

@<TRIPOS>MOLECULE
1VRT.lig
34    37    1     0     0    
SMALL
USER_CHARGES
@<TRIPOS>ATOM
1     N1       4.0540  -36.9310   22.2210 N.ar    1  LIG  -0.6650  -0.6200 
2     C1       4.9660  -36.2380   22.9390 C.ar    1  LIG   0.3947   0.1600 
3     H1       6.0082  -36.2811   22.6707 H       1  LIG   0.0281   0.1500 
4     C2       4.6240  -35.4500   24.0360 C.ar    1  LIG  -0.2334  -0.1500 
5     H2       5.3884  -34.9151   24.5740 H       1  LIG   0.1480   0.1500 
6     C3       3.3050  -35.3690   24.4150 C.ar    1  LIG  -0.0698  -0.1435 
7     C4       2.3460  -36.0770   23.6860 C.ar    1  LIG  -0.0398   0.1170 
8     N2       0.9890  -36.0280   24.1030 N.am    1  LIG  -0.4596  -0.5470 
9     H3       0.7643  -35.9928   25.0860 H       1  LIG   0.3311   0.3700 
10    C5      -0.1450  -36.0180   23.4080 C.2     1  LIG   0.7361   0.5438 
11    C6      -0.1190  -36.0770   21.8860 C.ar    1  LIG  -0.2550   0.0862 
12    C7      -1.1230  -35.3990   21.1890 C.ar    1  LIG  -0.0321  -0.1500 
13    H4      -1.7552  -34.6955   21.7041 H       1  LIG   0.1623   0.1500 
14    C8      -1.2960  -35.6300   19.8690 C.ar    1  LIG  -0.2723  -0.1500 
15    H5      -2.0662  -35.1073   19.3273 H       1  LIG   0.1522   0.1500 
16    C9      -0.4670  -36.5450   19.2400 C.ar    1  LIG   0.4373   0.1600 
17    H6      -0.5947  -36.7554   18.1915 H       1  LIG   0.0280   0.1500 
18    N3       0.5220  -37.2120   19.8740 N.ar    1  LIG  -0.6893  -0.6200 
19    C10      0.7040  -36.9790   21.1800 C.ar    1  LIG   0.6480   0.4100 
20    N4       1.7670  -37.6730   21.8260 N.pl3   1  LIG  -0.6924  -0.3690 
21    C11      2.7540  -36.8570   22.5840 C.ar    1  LIG   0.5805   0.4100 
22    C12      2.9040  -34.5090   25.6010 C.3     1  LIG  -0.0620   0.1435 
23    H7       2.2235  -33.7630   25.2820 H       1  LIG   0.0570   0.0000 
24    H8       2.4436  -35.1154   26.3371 H       1  LIG   0.0495   0.0000 
25    H9       3.7654  -34.0491   26.0108 H       1  LIG   0.0519   0.0000 
26    O1      -1.2400  -35.9060   23.9770 O.2     1  LIG  -0.6361  -0.5700 
27    C13      2.3440  -38.7570   21.0360 C.3     1  LIG   0.1354   0.0690 
28    H10      3.1238  -38.3754   20.4296 H       1  LIG   0.0981   0.1000 
29    C14      2.9380  -39.8900   21.8010 C.3     1  LIG  -0.1181  -0.2000 
30    H11      3.8890  -40.1268   21.3997 H       1  LIG   0.0732   0.1000 
31    H12      3.0430  -39.6129   22.8177 H       1  LIG   0.0789   0.1000 
32    C15      1.6390  -40.0610   21.0880 C.3     1  LIG  -0.1196  -0.2000 
33    H13      0.6832  -39.9283   21.5242 H       1  LIG   0.0807   0.1000 
34    H14      1.5292  -40.4423   20.1061 H       1  LIG   0.0733   0.1000 
@<TRIPOS>BOND
1     2     1     ar
2     3     2     1
3     4     2     ar
4     5     4     1
5     6     4     ar
6     7     6     ar
7     8     7     1
8     9     8     1
9     10    8     1
10    11    10    1
11    12    11    ar
12    13    12    1
13    14    12    ar
14    15    14    1
15    16    14    ar
16    17    16    1
17    18    16    ar
18    19    11    ar
19    19    18    ar
20    20    19    1
21    21    1     ar
22    21    7     ar
23    21    20    1
24    22    6     1
25    23    22    1
26    24    22    1
27    25    22    1
28    26    10    2
29    27    20    1
30    28    27    1
31    29    27    1
32    30    29    1
33    31    29    1
34    32    27    1
35    32    29    1
36    33    32    1
37    34    32    1
@<TRIPOS>SUBSTRUCTURE
1   LIG    1    
 
########## Name        : 1VRT.lig
########## Description : AM1BCC_CHARGES =  -0.0002 ORIGINAL_CHARGES =  -0.0000

@<TRIPOS>MOLECULE
1VRT.lig
34    37    1     0     0    
SMALL
USER_CHARGES
@<TRIPOS>ATOM
1     N1       4.0540  -36.9310   22.2210 N.ar    1  LIG  -0.6650  -0.6200 
2     C1       4.9660  -36.2380   22.9390 C.ar    1  LIG   0.3947   0.1600 
3     H1       6.0082  -36.2811   22.6707 H       1  LIG   0.0281   0.1500 
4     C2       4.6240  -35.4500   24.0360 C.ar    1  LIG  -0.2334  -0.1500 
5     H2       5.3884  -34.9151   24.5740 H       1  LIG   0.1480   0.1500 
6     C3       3.3050  -35.3690   24.4150 C.ar    1  LIG  -0.0698  -0.1435 
7     C4       2.3460  -36.0770   23.6860 C.ar    1  LIG  -0.0398   0.1170 
8     N2       0.9890  -36.0280   24.1030 N.am    1  LIG  -0.4596  -0.5470 
9     H3       0.7643  -35.9928   25.0860 H       1  LIG   0.3311   0.3700 
10    C5      -0.1450  -36.0180   23.4080 C.2     1  LIG   0.7361   0.5438 
11    C6      -0.1190  -36.0770   21.8860 C.ar    1  LIG  -0.2550   0.0862 
12    C7      -1.1230  -35.3990   21.1890 C.ar    1  LIG  -0.0321  -0.1500 
13    H4      -1.7552  -34.6955   21.7041 H       1  LIG   0.1623   0.1500 
14    C8      -1.2960  -35.6300   19.8690 C.ar    1  LIG  -0.2723  -0.1500 
15    H5      -2.0662  -35.1073   19.3273 H       1  LIG   0.1522   0.1500 
16    C9      -0.4670  -36.5450   19.2400 C.ar    1  LIG   0.4373   0.1600 
17    H6      -0.5947  -36.7554   18.1915 H       1  LIG   0.0280   0.1500 
18    N3       0.5220  -37.2120   19.8740 N.ar    1  LIG  -0.6893  -0.6200 
19    C10      0.7040  -36.9790   21.1800 C.ar    1  LIG   0.6480   0.4100 
20    N4       1.7670  -37.6730   21.8260 N.pl3   1  LIG  -0.6924  -0.3690 
21    C11      2.7540  -36.8570   22.5840 C.ar    1  LIG   0.5805   0.4100 
22    C12      2.9040  -34.5090   25.6010 C.3     1  LIG  -0.0620   0.1435 
23    H7       2.2235  -33.7630   25.2820 H       1  LIG   0.0570   0.0000 
24    H8       2.4436  -35.1154   26.3371 H       1  LIG   0.0495   0.0000 
25    H9       3.7654  -34.0491   26.0108 H       1  LIG   0.0519   0.0000 
26    O1      -1.2400  -35.9060   23.9770 O.2     1  LIG  -0.6361  -0.5700 
27    C13      2.3440  -38.7570   21.0360 C.3     1  LIG   0.1354   0.0690 
28    H10      3.1238  -38.3754   20.4296 H       1  LIG   0.0981   0.1000 
29    C14      2.9380  -39.8900   21.8010 C.3     1  LIG  -0.1181  -0.2000 
30    H11      3.8890  -40.1268   21.3997 H       1  LIG   0.0732   0.1000 
31    H12      3.0430  -39.6129   22.8177 H       1  LIG   0.0789   0.1000 
32    C15      1.6390  -40.0610   21.0880 C.3     1  LIG  -0.1196  -0.2000 
33    H13      0.6832  -39.9283   21.5242 H       1  LIG   0.0807   0.1000 
34    H14      1.5292  -40.4423   20.1061 H       1  LIG   0.0733   0.1000 
@<TRIPOS>BOND
1     2     1     ar
2     3     2     1
3     4     2     ar
4     5     4     1
5     6     4     ar
6     7     6     ar
7     8     7     1
8     9     8     1
9     10    8     1
10    11    10    1
11    12    11    ar
12    13    12    1
13    14    12    ar
14    15    14    1
15    16    14    ar
16    17    16    1
17    18    16    ar
18    19    11    ar
19    19    18    ar
20    20    19    1
21    21    1     ar
22    21    7     ar
23    21    20    1
24    22    6     1
25    23    22    1
26    24    22    1
27    25    22    1
28    26    10    2
29    27    20    1
30    28    27    1
31    29    27    1
32    30    29    1
33    31    29    1
34    32    27    1
35    32    29    1
36    33    32    1
37    34    32    1
@<TRIPOS>SUBSTRUCTURE
1   LIG    1    
 
########## Name        : 1VRT.lig
########## Description : AM1BCC_CHARGES =  -0.0002 ORIGINAL_CHARGES =  -0.0000

@<TRIPOS>MOLECULE
1VRT.lig
34    37    1     0     0    
SMALL
USER_CHARGES
@<TRIPOS>ATOM
1     N1       4.0540  -36.9310   22.2210 N.ar    1  LIG  -0.6650  -0.6200 
2     C1       4.9660  -36.2380   22.9390 C.ar    1  LIG   0.3947   0.1600 
3     H1       6.0082  -36.2811   22.6707 H       1  LIG   0.0281   0.1500 
4     C2       4.6240  -35.4500   24.0360 C.ar    1  LIG  -0.2334  -0.1500 
5     H2       5.3884  -34.9151   24.5740 H       1  LIG   0.1480   0.1500 
6     C3       3.3050  -35.3690   24.4150 C.ar    1  LIG  -0.0698  -0.1435 
7     C4       2.3460  -36.0770   23.6860 C.ar    1  LIG  -0.0398   0.1170 
8     N2       0.9890  -36.0280   24.1030 N.am    1  LIG  -0.4596  -0.5470 
9     H3       0.7643  -35.9928   25.0860 H       1  LIG   0.3311   0.3700 
10    C5      -0.1450  -36.0180   23.4080 C.2     1  LIG   0.7361   0.5438 
11    C6      -0.1190  -36.0770   21.8860 C.ar    1  LIG  -0.2550   0.0862 
12    C7      -1.1230  -35.3990   21.1890 C.ar    1  LIG  -0.0321  -0.1500 
13    H4      -1.7552  -34.6955   21.7041 H       1  LIG   0.1623   0.1500 
14    C8      -1.2960  -35.6300   19.8690 C.ar    1  LIG  -0.2723  -0.1500 
15    H5      -2.0662  -35.1073   19.3273 H       1  LIG   0.1522   0.1500 
16    C9      -0.4670  -36.5450   19.2400 C.ar    1  LIG   0.4373   0.1600 
17    H6      -0.5947  -36.7554   18.1915 H       1  LIG   0.0280   0.1500 
18    N3       0.5220  -37.2120   19.8740 N.ar    1  LIG  -0.6893  -0.6200 
19    C10      0.7040  -36.9790   21.1800 C.ar    1  LIG   0.6480   0.4100 
20    N4       1.7670  -37.6730   21.8260 N.pl3   1  LIG  -0.6924  -0.3690 
21    C11      2.7540  -36.8570   22.5840 C.ar    1  LIG   0.5805   0.4100 
22    C12      2.9040  -34.5090   25.6010 C.3     1  LIG  -0.0620   0.1435 
23    H7       2.2235  -33.7630   25.2820 H       1  LIG   0.0570   0.0000 
24    H8       2.4436  -35.1154   26.3371 H       1  LIG   0.0495   0.0000 
25    H9       3.7654  -34.0491   26.0108 H       1  LIG   0.0519   0.0000 
26    O1      -1.2400  -35.9060   23.9770 O.2     1  LIG  -0.6361  -0.5700 
27    C13      2.3440  -38.7570   21.0360 C.3     1  LIG   0.1354   0.0690 
28    H10      3.1238  -38.3754   20.4296 H       1  LIG   0.0981   0.1000 
29    C14      2.9380  -39.8900   21.8010 C.3     1  LIG  -0.1181  -0.2000 
30    H11      3.8890  -40.1268   21.3997 H       1  LIG   0.0732   0.1000 
31    H12      3.0430  -39.6129   22.8177 H       1  LIG   0.0789   0.1000 
32    C15      1.6390  -40.0610   21.0880 C.3     1  LIG  -0.1196  -0.2000 
33    H13      0.6832  -39.9283   21.5242 H       1  LIG   0.0807   0.1000 
34    H14      1.5292  -40.4423   20.1061 H       1  LIG   0.0733   0.1000 
@<TRIPOS>BOND
1     2     1     ar
2     3     2     1
3     4     2     ar
4     5     4     1
5     6     4     ar
6     7     6     ar
7     8     7     1
8     9     8     1
9     10    8     1
10    11    10    1
11    12    11    ar
12    13    12    1
13    14    12    ar
14    15    14    1
15    16    14    ar
16    17    16    1
17    18    16    ar
18    19    11    ar
19    19    18    ar
20    20    19    1
21    21    1     ar
22    21    7     ar
23    21    20    1
24    22    6     1
25    23    22    1
26    24    22    1
27    25    22    1
28    26    10    2
29    27    20    1
30    28    27    1
31    29    27    1
32    30    29    1
33    31    29    1
34    32    27    1
35    32    29    1
36    33    32    1
37    34    32    1
@<TRIPOS>SUBSTRUCTURE
1   LIG    1    
 
########## Name        : 1VRT.lig
########## Description : AM1BCC_CHARGES =  -0.0002 ORIGINAL_CHARGES =  -0.0000

@<TRIPOS>MOLECULE
1VRT.lig
34    37    1     0     0    
SMALL
USER_CHARGES
@<TRIPOS>ATOM
1     N1       4.0540  -36.9310   22.2210 N.ar    1  LIG  -0.6650  -0.6200 
2     C1       4.9660  -36.2380   22.9390 C.ar    1  LIG   0.3947   0.1600 
3     H1       6.0082  -36.2811   22.6707 H       1  LIG   0.0281   0.1500 
4     C2       4.6240  -35.4500   24.0360 C.ar    1  LIG  -0.2334  -0.1500 
5     H2       5.3884  -34.9151   24.5740 H       1  LIG   0.1480   0.1500 
6     C3       3.3050  -35.3690   24.4150 C.ar    1  LIG  -0.0698  -0.1435 
7     C4       2.3460  -36.0770   23.6860 C.ar    1  LIG  -0.0398   0.1170 
8     N2       0.9890  -36.0280   24.1030 N.am    1  LIG  -0.4596  -0.5470 
9     H3       0.7643  -35.9928   25.0860 H       1  LIG   0.3311   0.3700 
10    C5      -0.1450  -36.0180   23.4080 C.2     1  LIG   0.7361   0.5438 
11    C6      -0.1190  -36.0770   21.8860 C.ar    1  LIG  -0.2550   0.0862 
12    C7      -1.1230  -35.3990   21.1890 C.ar    1  LIG  -0.0321  -0.1500 
13    H4      -1.7552  -34.6955   21.7041 H       1  LIG   0.1623   0.1500 
14    C8      -1.2960  -35.6300   19.8690 C.ar    1  LIG  -0.2723  -0.1500 
15    H5      -2.0662  -35.1073   19.3273 H       1  LIG   0.1522   0.1500 
16    C9      -0.4670  -36.5450   19.2400 C.ar    1  LIG   0.4373   0.1600 
17    H6      -0.5947  -36.7554   18.1915 H       1  LIG   0.0280   0.1500 
18    N3       0.5220  -37.2120   19.8740 N.ar    1  LIG  -0.6893  -0.6200 
19    C10      0.7040  -36.9790   21.1800 C.ar    1  LIG   0.6480   0.4100 
20    N4       1.7670  -37.6730   21.8260 N.pl3   1  LIG  -0.6924  -0.3690 
21    C11      2.7540  -36.8570   22.5840 C.ar    1  LIG   0.5805   0.4100 
22    C12      2.9040  -34.5090   25.6010 C.3     1  LIG  -0.0620   0.1435 
23    H7       2.2235  -33.7630   25.2820 H       1  LIG   0.0570   0.0000 
24    H8       2.4436  -35.1154   26.3371 H       1  LIG   0.0495   0.0000 
25    H9       3.7654  -34.0491   26.0108 H       1  LIG   0.0519   0.0000 
26    O1      -1.2400  -35.9060   23.9770 O.2     1  LIG  -0.6361  -0.5700 
27    C13      2.3440  -38.7570   21.0360 C.3     1  LIG   0.1354   0.0690 
28    H10      3.1238  -38.3754   20.4296 H       1  LIG   0.0981   0.1000 
29    C14      2.9380  -39.8900   21.8010 C.3     1  LIG  -0.1181  -0.2000 
30    H11      3.8890  -40.1268   21.3997 H       1  LIG   0.0732   0.1000 
31    H12      3.0430  -39.6129   22.8177 H       1  LIG   0.0789   0.1000 
32    C15      1.6390  -40.0610   21.0880 C.3     1  LIG  -0.1196  -0.2000 
33    H13      0.6832  -39.9283   21.5242 H       1  LIG   0.0807   0.1000 
34    H14      1.5292  -40.4423   20.1061 H       1  LIG   0.0733   0.1000 
@<TRIPOS>BOND
1     2     1     ar
2     3     2     1
3     4     2     ar
4     5     4     1
5     6     4     ar
6     7     6     ar
7     8     7     1
8     9     8     1
9     10    8     1
10    11    10    1
11    12    11    ar
12    13    12    1
13    14    12    ar
14    15    14    1
15    16    14    ar
16    17    16    1
17    18    16    ar
18    19    11    ar
19    19    18    ar
20    20    19    1
21    21    1     ar
22    21    7     ar
23    21    20    1
24    22    6     1
25    23    22    1
26    24    22    1
27    25    22    1
28    26    10    2
29    27    20    1
30    28    27    1
31    29    27    1
32    30    29    1
33    31    29    1
34    32    27    1
35    32    29    1
36    33    32    1
37    34    32    1
@<TRIPOS>SUBSTRUCTURE
1   LIG    1    
 
########## Name        : 1VRT.lig
########## Description : AM1BCC_CHARGES =  -0.0002 ORIGINAL_CHARGES =  -0.0000

@<TRIPOS>MOLECULE
1VRT.lig
34    37    1     0     0    
SMALL
USER_CHARGES
@<TRIPOS>ATOM
1     N1       4.0540  -36.9310   22.2210 N.ar    1  LIG  -0.6650  -0.6200 
2     C1       4.9660  -36.2380   22.9390 C.ar    1  LIG   0.3947   0.1600 
3     H1       6.0082  -36.2811   22.6707 H       1  LIG   0.0281   0.1500 
4     C2       4.6240  -35.4500   24.0360 C.ar    1  LIG  -0.2334  -0.1500 
5     H2       5.3884  -34.9151   24.5740 H       1  LIG   0.1480   0.1500 
6     C3       3.3050  -35.3690   24.4150 C.ar    1  LIG  -0.0698  -0.1435 
7     C4       2.3460  -36.0770   23.6860 C.ar    1  LIG  -0.0398   0.1170 
8     N2       0.9890  -36.0280   24.1030 N.am    1  LIG  -0.4596  -0.5470 
9     H3       0.7643  -35.9928   25.0860 H       1  LIG   0.3311   0.3700 
10    C5      -0.1450  -36.0180   23.4080 C.2     1  LIG   0.7361   0.5438 
11    C6      -0.1190  -36.0770   21.8860 C.ar    1  LIG  -0.2550   0.0862 
12    C7      -1.1230  -35.3990   21.1890 C.ar    1  LIG  -0.0321  -0.1500 
13    H4      -1.7552  -34.6955   21.7041 H       1  LIG   0.1623   0.1500 
14    C8      -1.2960  -35.6300   19.8690 C.ar    1  LIG  -0.2723  -0.1500 
15    H5      -2.0662  -35.1073   19.3273 H       1  LIG   0.1522   0.1500 
16    C9      -0.4670  -36.5450   19.2400 C.ar    1  LIG   0.4373   0.1600 
17    H6      -0.5947  -36.7554   18.1915 H       1  LIG   0.0280   0.1500 
18    N3       0.5220  -37.2120   19.8740 N.ar    1  LIG  -0.6893  -0.6200 
19    C10      0.7040  -36.9790   21.1800 C.ar    1  LIG   0.6480   0.4100 
20    N4       1.7670  -37.6730   21.8260 N.pl3   1  LIG  -0.6924  -0.3690 
21    C11      2.7540  -36.8570   22.5840 C.ar    1  LIG   0.5805   0.4100 
22    C12      2.9040  -34.5090   25.6010 C.3     1  LIG  -0.0620   0.1435 
23    H7       2.2235  -33.7630   25.2820 H       1  LIG   0.0570   0.0000 
24    H8       2.4436  -35.1154   26.3371 H       1  LIG   0.0495   0.0000 
25    H9       3.7654  -34.0491   26.0108 H       1  LIG   0.0519   0.0000 
26    O1      -1.2400  -35.9060   23.9770 O.2     1  LIG  -0.6361  -0.5700 
27    C13      2.3440  -38.7570   21.0360 C.3     1  LIG   0.1354   0.0690 
28    H10      3.1238  -38.3754   20.4296 H       1  LIG   0.0981   0.1000 
29    C14      2.9380  -39.8900   21.8010 C.3     1  LIG  -0.1181  -0.2000 
30    H11      3.8890  -40.1268   21.3997 H       1  LIG   0.0732   0.1000 
31    H12      3.0430  -39.6129   22.8177 H       1  LIG   0.0789   0.1000 
32    C15      1.6390  -40.0610   21.0880 C.3     1  LIG  -0.1196  -0.2000 
33    H13      0.6832  -39.9283   21.5242 H       1  LIG   0.0807   0.1000 
34    H14      1.5292  -40.4423   20.1061 H       1  LIG   0.0733   0.1000 
@<TRIPOS>BOND
1     2     1     ar
2     3     2     1
3     4     2     ar
4     5     4     1
5     6     4     ar
6     7     6     ar
7     8     7     1
8     9     8     1
9     10    8     1
10    11    10    1
11    12    11    ar
12    13    12    1
13    14    12    ar
14    15    14    1
15    16    14    ar
16    17    16    1
17    18    16    ar
18    19    11    ar
19    19    18    ar
20    20    19    1
21    21    1     ar
22    21    7     ar
23    21    20    1
24    22    6     1
25    23    22    1
26    24    22    1
27    25    22    1
28    26    10    2
29    27    20    1
30    28    27    1
31    29    27    1
32    30    29    1
33    31    29    1
34    32    27    1
35    32    29    1
36    33    32    1
37    34    32    1
@<TRIPOS>SUBSTRUCTURE
1   LIG    1    
 
########## Name        : 1VRT.lig
########## Description : AM1BCC_CHARGES =  -0.0002 ORIGINAL_CHARGES =  -0.0000

@<TRIPOS>MOLECULE
1VRT.lig
34    37    1     0     0    
SMALL
USER_CHARGES
@<TRIPOS>ATOM
1     N1       4.0540  -36.9310   22.2210 N.ar    1  LIG  -0.6650  -0.6200 
2     C1       4.9660  -36.2380   22.9390 C.ar    1  LIG   0.3947   0.1600 
3     H1       6.0082  -36.2811   22.6707 H       1  LIG   0.0281   0.1500 
4     C2       4.6240  -35.4500   24.0360 C.ar    1  LIG  -0.2334  -0.1500 
5     H2       5.3884  -34.9151   24.5740 H       1  LIG   0.1480   0.1500 
6     C3       3.3050  -35.3690   24.4150 C.ar    1  LIG  -0.0698  -0.1435 
7     C4       2.3460  -36.0770   23.6860 C.ar    1  LIG  -0.0398   0.1170 
8     N2       0.9890  -36.0280   24.1030 N.am    1  LIG  -0.4596  -0.5470 
9     H3       0.7643  -35.9928   25.0860 H       1  LIG   0.3311   0.3700 
10    C5      -0.1450  -36.0180   23.4080 C.2     1  LIG   0.7361   0.5438 
11    C6      -0.1190  -36.0770   21.8860 C.ar    1  LIG  -0.2550   0.0862 
12    C7      -1.1230  -35.3990   21.1890 C.ar    1  LIG  -0.0321  -0.1500 
13    H4      -1.7552  -34.6955   21.7041 H       1  LIG   0.1623   0.1500 
14    C8      -1.2960  -35.6300   19.8690 C.ar    1  LIG  -0.2723  -0.1500 
15    H5      -2.0662  -35.1073   19.3273 H       1  LIG   0.1522   0.1500 
16    C9      -0.4670  -36.5450   19.2400 C.ar    1  LIG   0.4373   0.1600 
17    H6      -0.5947  -36.7554   18.1915 H       1  LIG   0.0280   0.1500 
18    N3       0.5220  -37.2120   19.8740 N.ar    1  LIG  -0.6893  -0.6200 
19    C10      0.7040  -36.9790   21.1800 C.ar    1  LIG   0.6480   0.4100 
20    N4       1.7670  -37.6730   21.8260 N.pl3   1  LIG  -0.6924  -0.3690 
21    C11      2.7540  -36.8570   22.5840 C.ar    1  LIG   0.5805   0.4100 
22    C12      2.9040  -34.5090   25.6010 C.3     1  LIG  -0.0620   0.1435 
23    H7       2.2235  -33.7630   25.2820 H       1  LIG   0.0570   0.0000 
24    H8       2.4436  -35.1154   26.3371 H       1  LIG   0.0495   0.0000 
25    H9       3.7654  -34.0491   26.0108 H       1  LIG   0.0519   0.0000 
26    O1      -1.2400  -35.9060   23.9770 O.2     1  LIG  -0.6361  -0.5700 
27    C13      2.3440  -38.7570   21.0360 C.3     1  LIG   0.1354   0.0690 
28    H10      3.1238  -38.3754   20.4296 H       1  LIG   0.0981   0.1000 
29    C14      2.9380  -39.8900   21.8010 C.3     1  LIG  -0.1181  -0.2000 
30    H11      3.8890  -40.1268   21.3997 H       1  LIG   0.0732   0.1000 
31    H12      3.0430  -39.6129   22.8177 H       1  LIG   0.0789   0.1000 
32    C15      1.6390  -40.0610   21.0880 C.3     1  LIG  -0.1196  -0.2000 
33    H13      0.6832  -39.9283   21.5242 H       1  LIG   0.0807   0.1000 
34    H14      1.5292  -40.4423   20.1061 H       1  LIG   0.0733   0.1000 
@<TRIPOS>BOND
1     2     1     ar
2     3     2     1
3     4     2     ar
4     5     4     1
5     6     4     ar
6     7     6     ar
7     8     7     1
8     9     8     1
9     10    8     1
10    11    10    1
11    12    11    ar
12    13    12    1
13    14    12    ar
14    15    14    1
15    16    14    ar
16    17    16    1
17    18    16    ar
18    19    11    ar
19    19    18    ar
20    20    19    1
21    21    1     ar
22    21    7     ar
23    21    20    1
24    22    6     1
25    23    22    1
26    24    22    1
27    25    22    1
28    26    10    2
29    27    20    1
30    28    27    1
31    29    27    1
32    30    29    1
33    31    29    1
34    32    27    1
35    32    29    1
36    33    32    1
37    34    32    1
@<TRIPOS>SUBSTRUCTURE
1   LIG    1    
 
########## Name        : 1VRT.lig
########## Description : AM1BCC_CHARGES =  -0.0002 ORIGINAL_CHARGES =  -0.0000

@<TRIPOS>MOLECULE
1VRT.lig
34    37    1     0     0    
SMALL
USER_CHARGES
@<TRIPOS>ATOM
1     N1       4.0540  -36.9310   22.2210 N.ar    1  LIG  -0.6650  -0.6200 
2     C1       4.9660  -36.2380   22.9390 C.ar    1  LIG   0.3947   0.1600 
3     H1       6.0082  -36.2811   22.6707 H       1  LIG   0.0281   0.1500 
4     C2       4.6240  -35.4500   24.0360 C.ar    1  LIG  -0.2334  -0.1500 
5     H2       5.3884  -34.9151   24.5740 H       1  LIG   0.1480   0.1500 
6     C3       3.3050  -35.3690   24.4150 C.ar    1  LIG  -0.0698  -0.1435 
7     C4       2.3460  -36.0770   23.6860 C.ar    1  LIG  -0.0398   0.1170 
8     N2       0.9890  -36.0280   24.1030 N.am    1  LIG  -0.4596  -0.5470 
9     H3       0.7643  -35.9928   25.0860 H       1  LIG   0.3311   0.3700 
10    C5      -0.1450  -36.0180   23.4080 C.2     1  LIG   0.7361   0.5438 
11    C6      -0.1190  -36.0770   21.8860 C.ar    1  LIG  -0.2550   0.0862 
12    C7      -1.1230  -35.3990   21.1890 C.ar    1  LIG  -0.0321  -0.1500 
13    H4      -1.7552  -34.6955   21.7041 H       1  LIG   0.1623   0.1500 
14    C8      -1.2960  -35.6300   19.8690 C.ar    1  LIG  -0.2723  -0.1500 
15    H5      -2.0662  -35.1073   19.3273 H       1  LIG   0.1522   0.1500 
16    C9      -0.4670  -36.5450   19.2400 C.ar    1  LIG   0.4373   0.1600 
17    H6      -0.5947  -36.7554   18.1915 H       1  LIG   0.0280   0.1500 
18    N3       0.5220  -37.2120   19.8740 N.ar    1  LIG  -0.6893  -0.6200 
19    C10      0.7040  -36.9790   21.1800 C.ar    1  LIG   0.6480   0.4100 
20    N4       1.7670  -37.6730   21.8260 N.pl3   1  LIG  -0.6924  -0.3690 
21    C11      2.7540  -36.8570   22.5840 C.ar    1  LIG   0.5805   0.4100 
22    C12      2.9040  -34.5090   25.6010 C.3     1  LIG  -0.0620   0.1435 
23    H7       2.2235  -33.7630   25.2820 H       1  LIG   0.0570   0.0000 
24    H8       2.4436  -35.1154   26.3371 H       1  LIG   0.0495   0.0000 
25    H9       3.7654  -34.0491   26.0108 H       1  LIG   0.0519   0.0000 
26    O1      -1.2400  -35.9060   23.9770 O.2     1  LIG  -0.6361  -0.5700 
27    C13      2.3440  -38.7570   21.0360 C.3     1  LIG   0.1354   0.0690 
28    H10      3.1238  -38.3754   20.4296 H       1  LIG   0.0981   0.1000 
29    C14      2.9380  -39.8900   21.8010 C.3     1  LIG  -0.1181  -0.2000 
30    H11      3.8890  -40.1268   21.3997 H       1  LIG   0.0732   0.1000 
31    H12      3.0430  -39.6129   22.8177 H       1  LIG   0.0789   0.1000 
32    C15      1.6390  -40.0610   21.0880 C.3     1  LIG  -0.1196  -0.2000 
33    H13      0.6832  -39.9283   21.5242 H       1  LIG   0.0807   0.1000 
34    H14      1.5292  -40.4423   20.1061 H       1  LIG   0.0733   0.1000 
@<TRIPOS>BOND
1     2     1     ar
2     3     2     1
3     4     2     ar
4     5     4     1
5     6     4     ar
6     7     6     ar
7     8     7     1
8     9     8     1
9     10    8     1
10    11    10    1
11    12    11    ar
12    13    12    1
13    14    12    ar
14    15    14    1
15    16    14    ar
16    17    16    1
17    18    16    ar
18    19    11    ar
19    19    18    ar
20    20    19    1
21    21    1     ar
22    21    7     ar
23    21    20    1
24    22    6     1
25    23    22    1
26    24    22    1
27    25    22    1
28    26    10    2
29    27    20    1
30    28    27    1
31    29    27    1
32    30    29    1
33    31    29    1
34    32    27    1
35    32    29    1
36    33    32    1
37    34    32    1
@<TRIPOS>SUBSTRUCTURE
1   LIG    1    
 
########## Name        : 1VRT.lig
########## Description : AM1BCC_CHARGES =  -0.0002 ORIGINAL_CHARGES =  -0.0000

@<TRIPOS>MOLECULE
1VRT.lig
34    37    1     0     0    
SMALL
USER_CHARGES
@<TRIPOS>ATOM
1     N1       4.0540  -36.9310   22.2210 N.ar    1  LIG  -0.6650  -0.6200 
2     C1       4.9660  -36.2380   22.9390 C.ar    1  LIG   0.3947   0.1600 
3     H1       6.0082  -36.2811   22.6707 H       1  LIG   0.0281   0.1500 
4     C2       4.6240  -35.4500   24.0360 C.ar    1  LIG  -0.2334  -0.1500 
5     H2       5.3884  -34.9151   24.5740 H       1  LIG   0.1480   0.1500 
6     C3       3.3050  -35.3690   24.4150 C.ar    1  LIG  -0.0698  -0.1435 
7     C4       2.3460  -36.0770   23.6860 C.ar    1  LIG  -0.0398   0.1170 
8     N2       0.9890  -36.0280   24.1030 N.am    1  LIG  -0.4596  -0.5470 
9     H3       0.7643  -35.9928   25.0860 H       1  LIG   0.3311   0.3700 
10    C5      -0.1450  -36.0180   23.4080 C.2     1  LIG   0.7361   0.5438 
11    C6      -0.1190  -36.0770   21.8860 C.ar    1  LIG  -0.2550   0.0862 
12    C7      -1.1230  -35.3990   21.1890 C.ar    1  LIG  -0.0321  -0.1500 
13    H4      -1.7552  -34.6955   21.7041 H       1  LIG   0.1623   0.1500 
14    C8      -1.2960  -35.6300   19.8690 C.ar    1  LIG  -0.2723  -0.1500 
15    H5      -2.0662  -35.1073   19.3273 H       1  LIG   0.1522   0.1500 
16    C9      -0.4670  -36.5450   19.2400 C.ar    1  LIG   0.4373   0.1600 
17    H6      -0.5947  -36.7554   18.1915 H       1  LIG   0.0280   0.1500 
18    N3       0.5220  -37.2120   19.8740 N.ar    1  LIG  -0.6893  -0.6200 
19    C10      0.7040  -36.9790   21.1800 C.ar    1  LIG   0.6480   0.4100 
20    N4       1.7670  -37.6730   21.8260 N.pl3   1  LIG  -0.6924  -0.3690 
21    C11      2.7540  -36.8570   22.5840 C.ar    1  LIG   0.5805   0.4100 
22    C12      2.9040  -34.5090   25.6010 C.3     1  LIG  -0.0620   0.1435 
23    H7       2.2235  -33.7630   25.2820 H       1  LIG   0.0570   0.0000 
24    H8       2.4436  -35.1154   26.3371 H       1  LIG   0.0495   0.0000 
25    H9       3.7654  -34.0491   26.0108 H       1  LIG   0.0519   0.0000 
26    O1      -1.2400  -35.9060   23.9770 O.2     1  LIG  -0.6361  -0.5700 
27    C13      2.3440  -38.7570   21.0360 C.3     1  LIG   0.1354   0.0690 
28    H10      3.1238  -38.3754   20.4296 H       1  LIG   0.0981   0.1000 
29    C14      2.9380  -39.8900   21.8010 C.3     1  LIG  -0.1181  -0.2000 
30    H11      3.8890  -40.1268   21.3997 H       1  LIG   0.0732   0.1000 
31    H12      3.0430  -39.6129   22.8177 H       1  LIG   0.0789   0.1000 
32    C15      1.6390  -40.0610   21.0880 C.3     1  LIG  -0.1196  -0.2000 
33    H13      0.6832  -39.9283   21.5242 H       1  LIG   0.0807   0.1000 
34    H14      1.5292  -40.4423   20.1061 H       1  LIG   0.0733   0.1000 
@<TRIPOS>BOND
1     2     1     ar
2     3     2     1
3     4     2     ar
4     5     4     1
5     6     4     ar
6     7     6     ar
7     8     7     1
8     9     8     1
9     10    8     1
10    11    10    1
11    12    11    ar
12    13    12    1
13    14    12    ar
14    15    14    1
15    16    14    ar
16    17    16    1
17    18    16    ar
18    19    11    ar
19    19    18    ar
20    20    19    1
21    21    1     ar
22    21    7     ar
23    21    20    1
24    22    6     1
25    23    22    1
26    24    22    1
27    25    22    1
28    26    10    2
29    27    20    1
30    28    27    1
31    29    27    1
32    30    29    1
33    31    29    1
34    32    27    1
35    32    29    1
36    33    32    1
37    34    32    1
@<TRIPOS>SUBSTRUCTURE
1   LIG    1    
 
########## Name        : 1VRT.lig
########## Description : AM1BCC_CHARGES =  -0.0002 ORIGINAL_CHARGES =  -0.0000

@<TRIPOS>MOLECULE
1VRT.lig
34    37    1     0     0    
SMALL
USER_CHARGES
@<TRIPOS>ATOM
1     N1       4.0540  -36.9310   22.2210 N.ar    1  LIG  -0.6650  -0.6200 
2     C1       4.9660  -36.2380   22.9390 C.ar    1  LIG   0.3947   0.1600 
3     H1       6.0082  -36.2811   22.6707 H       1  LIG   0.0281   0.1500 
4     C2       4.6240  -35.4500   24.0360 C.ar    1  LIG  -0.2334  -0.1500 
5     H2       5.3884  -34.9151   24.5740 H       1  LIG   0.1480   0.1500 
6     C3       3.3050  -35.3690   24.4150 C.ar    1  LIG  -0.0698  -0.1435 
7     C4       2.3460  -36.0770   23.6860 C.ar    1  LIG  -0.0398   0.1170 
8     N2       0.9890  -36.0280   24.1030 N.am    1  LIG  -0.4596  -0.5470 
9     H3       0.7643  -35.9928   25.0860 H       1  LIG   0.3311   0.3700 
10    C5      -0.1450  -36.0180   23.4080 C.2     1  LIG   0.7361   0.5438 
11    C6      -0.1190  -36.0770   21.8860 C.ar    1  LIG  -0.2550   0.0862 
12    C7      -1.1230  -35.3990   21.1890 C.ar    1  LIG  -0.0321  -0.1500 
13    H4      -1.7552  -34.6955   21.7041 H       1  LIG   0.1623   0.1500 
14    C8      -1.2960  -35.6300   19.8690 C.ar    1  LIG  -0.2723  -0.1500 
15    H5      -2.0662  -35.1073   19.3273 H       1  LIG   0.1522   0.1500 
16    C9      -0.4670  -36.5450   19.2400 C.ar    1  LIG   0.4373   0.1600 
17    H6      -0.5947  -36.7554   18.1915 H       1  LIG   0.0280   0.1500 
18    N3       0.5220  -37.2120   19.8740 N.ar    1  LIG  -0.6893  -0.6200 
19    C10      0.7040  -36.9790   21.1800 C.ar    1  LIG   0.6480   0.4100 
20    N4       1.7670  -37.6730   21.8260 N.pl3   1  LIG  -0.6924  -0.3690 
21    C11      2.7540  -36.8570   22.5840 C.ar    1  LIG   0.5805   0.4100 
22    C12      2.9040  -34.5090   25.6010 C.3     1  LIG  -0.0620   0.1435 
23    H7       2.2235  -33.7630   25.2820 H       1  LIG   0.0570   0.0000 
24    H8       2.4436  -35.1154   26.3371 H       1  LIG   0.0495   0.0000 
25    H9       3.7654  -34.0491   26.0108 H       1  LIG   0.0519   0.0000 
26    O1      -1.2400  -35.9060   23.9770 O.2     1  LIG  -0.6361  -0.5700 
27    C13      2.3440  -38.7570   21.0360 C.3     1  LIG   0.1354   0.0690 
28    H10      3.1238  -38.3754   20.4296 H       1  LIG   0.0981   0.1000 
29    C14      2.9380  -39.8900   21.8010 C.3     1  LIG  -0.1181  -0.2000 
30    H11      3.8890  -40.1268   21.3997 H       1  LIG   0.0732   0.1000 
31    H12      3.0430  -39.6129   22.8177 H       1  LIG   0.0789   0.1000 
32    C15      1.6390  -40.0610   21.0880 C.3     1  LIG  -0.1196  -0.2000 
33    H13      0.6832  -39.9283   21.5242 H       1  LIG   0.0807   0.1000 
34    H14      1.5292  -40.4423   20.1061 H       1  LIG   0.0733   0.1000 
@<TRIPOS>BOND
1     2     1     ar
2     3     2     1
3     4     2     ar
4     5     4     1
5     6     4     ar
6     7     6     ar
7     8     7     1
8     9     8     1
9     10    8     1
10    11    10    1
11    12    11    ar
12    13    12    1
13    14    12    ar
14    15    14    1
15    16    14    ar
16    17    16    1
17    18    16    ar
18    19    11    ar
19    19    18    ar
20    20    19    1
21    21    1     ar
22    21    7     ar
23    21    20    1
24    22    6     1
25    23    22    1
26    24    22    1
27    25    22    1
28    26    10    2
29    27    20    1
30    28    27    1
31    29    27    1
32    30    29    1
33    31    29    1
34    32    27    1
35    32    29    1
36    33    32    1
37    34    32    1
@<TRIPOS>SUBSTRUCTURE
1   LIG    1    
 
########## Name        : 1VRT.lig
########## Description : AM1BCC_CHARGES =  -0.0002 ORIGINAL_CHARGES =  -0.0000

@<TRIPOS>MOLECULE
1VRT.lig
34    37    1     0     0    
SMALL
USER_CHARGES
@<TRIPOS>ATOM
1     N1       4.0540  -36.9310   22.2210 N.ar    1  LIG  -0.6650  -0.6200 
2     C1       4.9660  -36.2380   22.9390 C.ar    1  LIG   0.3947   0.1600 
3     H1       6.0082  -36.2811   22.6707 H       1  LIG   0.0281   0.1500 
4     C2       4.6240  -35.4500   24.0360 C.ar    1  LIG  -0.2334  -0.1500 
5     H2       5.3884  -34.9151   24.5740 H       1  LIG   0.1480   0.1500 
6     C3       3.3050  -35.3690   24.4150 C.ar    1  LIG  -0.0698  -0.1435 
7     C4       2.3460  -36.0770   23.6860 C.ar    1  LIG  -0.0398   0.1170 
8     N2       0.9890  -36.0280   24.1030 N.am    1  LIG  -0.4596  -0.5470 
9     H3       0.7643  -35.9928   25.0860 H       1  LIG   0.3311   0.3700 
10    C5      -0.1450  -36.0180   23.4080 C.2     1  LIG   0.7361   0.5438 
11    C6      -0.1190  -36.0770   21.8860 C.ar    1  LIG  -0.2550   0.0862 
12    C7      -1.1230  -35.3990   21.1890 C.ar    1  LIG  -0.0321  -0.1500 
13    H4      -1.7552  -34.6955   21.7041 H       1  LIG   0.1623   0.1500 
14    C8      -1.2960  -35.6300   19.8690 C.ar    1  LIG  -0.2723  -0.1500 
15    H5      -2.0662  -35.1073   19.3273 H       1  LIG   0.1522   0.1500 
16    C9      -0.4670  -36.5450   19.2400 C.ar    1  LIG   0.4373   0.1600 
17    H6      -0.5947  -36.7554   18.1915 H       1  LIG   0.0280   0.1500 
18    N3       0.5220  -37.2120   19.8740 N.ar    1  LIG  -0.6893  -0.6200 
19    C10      0.7040  -36.9790   21.1800 C.ar    1  LIG   0.6480   0.4100 
20    N4       1.7670  -37.6730   21.8260 N.pl3   1  LIG  -0.6924  -0.3690 
21    C11      2.7540  -36.8570   22.5840 C.ar    1  LIG   0.5805   0.4100 
22    C12      2.9040  -34.5090   25.6010 C.3     1  LIG  -0.0620   0.1435 
23    H7       2.2235  -33.7630   25.2820 H       1  LIG   0.0570   0.0000 
24    H8       2.4436  -35.1154   26.3371 H       1  LIG   0.0495   0.0000 
25    H9       3.7654  -34.0491   26.0108 H       1  LIG   0.0519   0.0000 
26    O1      -1.2400  -35.9060   23.9770 O.2     1  LIG  -0.6361  -0.5700 
27    C13      2.3440  -38.7570   21.0360 C.3     1  LIG   0.1354   0.0690 
28    H10      3.1238  -38.3754   20.4296 H       1  LIG   0.0981   0.1000 
29    C14      2.9380  -39.8900   21.8010 C.3     1  LIG  -0.1181  -0.2000 
30    H11      3.8890  -40.1268   21.3997 H       1  LIG   0.0732   0.1000 
31    H12      3.0430  -39.6129   22.8177 H       1  LIG   0.0789   0.1000 
32    C15      1.6390  -40.0610   21.0880 C.3     1  LIG  -0.1196  -0.2000 
33    H13      0.6832  -39.9283   21.5242 H       1  LIG   0.0807   0.1000 
34    H14      1.5292  -40.4423   20.1061 H       1  LIG   0.0733   0.1000 
@<TRIPOS>BOND
1     2     1     ar
2     3     2     1
3     4     2     ar
4     5     4     1
5     6     4     ar
6     7     6     ar
7     8     7     1
8     9     8     1
9     10    8     1
10    11    10    1
11    12    11    ar
12    13    12    1
13    14    12    ar
14    15    14    1
15    16    14    ar
16    17    16    1
17    18    16    ar
18    19    11    ar
19    19    18    ar
20    20    19    1
21    21    1     ar
22    21    7     ar
23    21    20    1
24    22    6     1
25    23    22    1
26    24    22    1
27    25    22    1
28    26    10    2
29    27    20    1
30    28    27    1
31    29    27    1
32    30    29    1
33    31    29    1
34    32    27    1
35    32    29    1
36    33    32    1
37    34    32    1
@<TRIPOS>SUBSTRUCTURE
1   LIG    1    
 
########## Name        : 1VRT.lig
########## Description : AM1BCC_CHARGES =  -0.0002 ORIGINAL_CHARGES =  -0.0000

@<TRIPOS>MOLECULE
1VRT.lig
34    37    1     0     0    
SMALL
USER_CHARGES
@<TRIPOS>ATOM
1     N1       4.0540  -36.9310   22.2210 N.ar    1  LIG  -0.6650  -0.6200 
2     C1       4.9660  -36.2380   22.9390 C.ar    1  LIG   0.3947   0.1600 
3     H1       6.0082  -36.2811   22.6707 H       1  LIG   0.0281   0.1500 
4     C2       4.6240  -35.4500   24.0360 C.ar    1  LIG  -0.2334  -0.1500 
5     H2       5.3884  -34.9151   24.5740 H       1  LIG   0.1480   0.1500 
6     C3       3.3050  -35.3690   24.4150 C.ar    1  LIG  -0.0698  -0.1435 
7     C4       2.3460  -36.0770   23.6860 C.ar    1  LIG  -0.0398   0.1170 
8     N2       0.9890  -36.0280   24.1030 N.am    1  LIG  -0.4596  -0.5470 
9     H3       0.7643  -35.9928   25.0860 H       1  LIG   0.3311   0.3700 
10    C5      -0.1450  -36.0180   23.4080 C.2     1  LIG   0.7361   0.5438 
11    C6      -0.1190  -36.0770   21.8860 C.ar    1  LIG  -0.2550   0.0862 
12    C7      -1.1230  -35.3990   21.1890 C.ar    1  LIG  -0.0321  -0.1500 
13    H4      -1.7552  -34.6955   21.7041 H       1  LIG   0.1623   0.1500 
14    C8      -1.2960  -35.6300   19.8690 C.ar    1  LIG  -0.2723  -0.1500 
15    H5      -2.0662  -35.1073   19.3273 H       1  LIG   0.1522   0.1500 
16    C9      -0.4670  -36.5450   19.2400 C.ar    1  LIG   0.4373   0.1600 
17    H6      -0.5947  -36.7554   18.1915 H       1  LIG   0.0280   0.1500 
18    N3       0.5220  -37.2120   19.8740 N.ar    1  LIG  -0.6893  -0.6200 
19    C10      0.7040  -36.9790   21.1800 C.ar    1  LIG   0.6480   0.4100 
20    N4       1.7670  -37.6730   21.8260 N.pl3   1  LIG  -0.6924  -0.3690 
21    C11      2.7540  -36.8570   22.5840 C.ar    1  LIG   0.5805   0.4100 
22    C12      2.9040  -34.5090   25.6010 C.3     1  LIG  -0.0620   0.1435 
23    H7       2.2235  -33.7630   25.2820 H       1  LIG   0.0570   0.0000 
24    H8       2.4436  -35.1154   26.3371 H       1  LIG   0.0495   0.0000 
25    H9       3.7654  -34.0491   26.0108 H       1  LIG   0.0519   0.0000 
26    O1      -1.2400  -35.9060   23.9770 O.2     1  LIG  -0.6361  -0.5700 
27    C13      2.3440  -38.7570   21.0360 C.3     1  LIG   0.1354   0.0690 
28    H10      3.1238  -38.3754   20.4296 H       1  LIG   0.0981   0.1000 
29    C14      2.9380  -39.8900   21.8010 C.3     1  LIG  -0.1181  -0.2000 
30    H11      3.8890  -40.1268   21.3997 H       1  LIG   0.0732   0.1000 
31    H12      3.0430  -39.6129   22.8177 H       1  LIG   0.0789   0.1000 
32    C15      1.6390  -40.0610   21.0880 C.3     1  LIG  -0.1196  -0.2000 
33    H13      0.6832  -39.9283   21.5242 H       1  LIG   0.0807   0.1000 
34    H14      1.5292  -40.4423   20.1061 H       1  LIG   0.0733   0.1000 
@<TRIPOS>BOND
1     2     1     ar
2     3     2     1
3     4     2     ar
4     5     4     1
5     6     4     ar
6     7     6     ar
7     8     7     1
8     9     8     1
9     10    8     1
10    11    10    1
11    12    11    ar
12    13    12    1
13    14    12    ar
14    15    14    1
15    16    14    ar
16    17    16    1
17    18    16    ar
18    19    11    ar
19    19    18    ar
20    20    19    1
21    21    1     ar
22    21    7     ar
23    21    20    1
24    22    6     1
25    23    22    1
26    24    22    1
27    25    22    1
28    26    10    2
29    27    20    1
30    28    27    1
31    29    27    1
32    30    29    1
33    31    29    1
34    32    27    1
35    32    29    1
36    33    32    1
37    34    32    1
@<TRIPOS>SUBSTRUCTURE
1   LIG    1    
 
########## Name        : 1VRT.lig
########## Description : AM1BCC_CHARGES =  -0.0002 ORIGINAL_CHARGES =  -0.0000

@<TRIPOS>MOLECULE
1VRT.lig
34    37    1     0     0    
SMALL
USER_CHARGES
@<TRIPOS>ATOM
1     N1       4.0540  -36.9310   22.2210 N.ar    1  LIG  -0.6650  -0.6200 
2     C1       4.9660  -36.2380   22.9390 C.ar    1  LIG   0.3947   0.1600 
3     H1       6.0082  -36.2811   22.6707 H       1  LIG   0.0281   0.1500 
4     C2       4.6240  -35.4500   24.0360 C.ar    1  LIG  -0.2334  -0.1500 
5     H2       5.3884  -34.9151   24.5740 H       1  LIG   0.1480   0.1500 
6     C3       3.3050  -35.3690   24.4150 C.ar    1  LIG  -0.0698  -0.1435 
7     C4       2.3460  -36.0770   23.6860 C.ar    1  LIG  -0.0398   0.1170 
8     N2       0.9890  -36.0280   24.1030 N.am    1  LIG  -0.4596  -0.5470 
9     H3       0.7643  -35.9928   25.0860 H       1  LIG   0.3311   0.3700 
10    C5      -0.1450  -36.0180   23.4080 C.2     1  LIG   0.7361   0.5438 
11    C6      -0.1190  -36.0770   21.8860 C.ar    1  LIG  -0.2550   0.0862 
12    C7      -1.1230  -35.3990   21.1890 C.ar    1  LIG  -0.0321  -0.1500 
13    H4      -1.7552  -34.6955   21.7041 H       1  LIG   0.1623   0.1500 
14    C8      -1.2960  -35.6300   19.8690 C.ar    1  LIG  -0.2723  -0.1500 
15    H5      -2.0662  -35.1073   19.3273 H       1  LIG   0.1522   0.1500 
16    C9      -0.4670  -36.5450   19.2400 C.ar    1  LIG   0.4373   0.1600 
17    H6      -0.5947  -36.7554   18.1915 H       1  LIG   0.0280   0.1500 
18    N3       0.5220  -37.2120   19.8740 N.ar    1  LIG  -0.6893  -0.6200 
19    C10      0.7040  -36.9790   21.1800 C.ar    1  LIG   0.6480   0.4100 
20    N4       1.7670  -37.6730   21.8260 N.pl3   1  LIG  -0.6924  -0.3690 
21    C11      2.7540  -36.8570   22.5840 C.ar    1  LIG   0.5805   0.4100 
22    C12      2.9040  -34.5090   25.6010 C.3     1  LIG  -0.0620   0.1435 
23    H7       2.2235  -33.7630   25.2820 H       1  LIG   0.0570   0.0000 
24    H8       2.4436  -35.1154   26.3371 H       1  LIG   0.0495   0.0000 
25    H9       3.7654  -34.0491   26.0108 H       1  LIG   0.0519   0.0000 
26    O1      -1.2400  -35.9060   23.9770 O.2     1  LIG  -0.6361  -0.5700 
27    C13      2.3440  -38.7570   21.0360 C.3     1  LIG   0.1354   0.0690 
28    H10      3.1238  -38.3754   20.4296 H       1  LIG   0.0981   0.1000 
29    C14      2.9380  -39.8900   21.8010 C.3     1  LIG  -0.1181  -0.2000 
30    H11      3.8890  -40.1268   21.3997 H       1  LIG   0.0732   0.1000 
31    H12      3.0430  -39.6129   22.8177 H       1  LIG   0.0789   0.1000 
32    C15      1.6390  -40.0610   21.0880 C.3     1  LIG  -0.1196  -0.2000 
33    H13      0.6832  -39.9283   21.5242 H       1  LIG   0.0807   0.1000 
34    H14      1.5292  -40.4423   20.1061 H       1  LIG   0.0733   0.1000 
@<TRIPOS>BOND
1     2     1     ar
2     3     2     1
3     4     2     ar
4     5     4     1
5     6     4     ar
6     7     6     ar
7     8     7     1
8     9     8     1
9     10    8     1
10    11    10    1
11    12    11    ar
12    13    12    1
13    14    12    ar
14    15    14    1
15    16    14    ar
16    17    16    1
17    18    16    ar
18    19    11    ar
19    19    18    ar
20    20    19    1
21    21    1     ar
22    21    7     ar
23    21    20    1
24    22    6     1
25    23    22    1
26    24    22    1
27    25    22    1
28    26    10    2
29    27    20    1
30    28    27    1
31    29    27    1
32    30    29    1
33    31    29    1
34    32    27    1
35    32    29    1
36    33    32    1
37    34    32    1
@<TRIPOS>SUBSTRUCTURE
1   LIG    1    
 
########## Name        : 1VRT.lig
########## Description : AM1BCC_CHARGES =  -0.0002 ORIGINAL_CHARGES =  -0.0000

@<TRIPOS>MOLECULE
1VRT.lig
34    37    1     0     0    
SMALL
USER_CHARGES
@<TRIPOS>ATOM
1     N1       4.0540  -36.9310   22.2210 N.ar    1  LIG  -0.6650  -0.6200 
2     C1       4.9660  -36.2380   22.9390 C.ar    1  LIG   0.3947   0.1600 
3     H1       6.0082  -36.2811   22.6707 H       1  LIG   0.0281   0.1500 
4     C2       4.6240  -35.4500   24.0360 C.ar    1  LIG  -0.2334  -0.1500 
5     H2       5.3884  -34.9151   24.5740 H       1  LIG   0.1480   0.1500 
6     C3       3.3050  -35.3690   24.4150 C.ar    1  LIG  -0.0698  -0.1435 
7     C4       2.3460  -36.0770   23.6860 C.ar    1  LIG  -0.0398   0.1170 
8     N2       0.9890  -36.0280   24.1030 N.am    1  LIG  -0.4596  -0.5470 
9     H3       0.7643  -35.9928   25.0860 H       1  LIG   0.3311   0.3700 
10    C5      -0.1450  -36.0180   23.4080 C.2     1  LIG   0.7361   0.5438 
11    C6      -0.1190  -36.0770   21.8860 C.ar    1  LIG  -0.2550   0.0862 
12    C7      -1.1230  -35.3990   21.1890 C.ar    1  LIG  -0.0321  -0.1500 
13    H4      -1.7552  -34.6955   21.7041 H       1  LIG   0.1623   0.1500 
14    C8      -1.2960  -35.6300   19.8690 C.ar    1  LIG  -0.2723  -0.1500 
15    H5      -2.0662  -35.1073   19.3273 H       1  LIG   0.1522   0.1500 
16    C9      -0.4670  -36.5450   19.2400 C.ar    1  LIG   0.4373   0.1600 
17    H6      -0.5947  -36.7554   18.1915 H       1  LIG   0.0280   0.1500 
18    N3       0.5220  -37.2120   19.8740 N.ar    1  LIG  -0.6893  -0.6200 
19    C10      0.7040  -36.9790   21.1800 C.ar    1  LIG   0.6480   0.4100 
20    N4       1.7670  -37.6730   21.8260 N.pl3   1  LIG  -0.6924  -0.3690 
21    C11      2.7540  -36.8570   22.5840 C.ar    1  LIG   0.5805   0.4100 
22    C12      2.9040  -34.5090   25.6010 C.3     1  LIG  -0.0620   0.1435 
23    H7       2.2235  -33.7630   25.2820 H       1  LIG   0.0570   0.0000 
24    H8       2.4436  -35.1154   26.3371 H       1  LIG   0.0495   0.0000 
25    H9       3.7654  -34.0491   26.0108 H       1  LIG   0.0519   0.0000 
26    O1      -1.2400  -35.9060   23.9770 O.2     1  LIG  -0.6361  -0.5700 
27    C13      2.3440  -38.7570   21.0360 C.3     1  LIG   0.1354   0.0690 
28    H10      3.1238  -38.3754   20.4296 H       1  LIG   0.0981   0.1000 
29    C14      2.9380  -39.8900   21.8010 C.3     1  LIG  -0.1181  -0.2000 
30    H11      3.8890  -40.1268   21.3997 H       1  LIG   0.0732   0.1000 
31    H12      3.0430  -39.6129   22.8177 H       1  LIG   0.0789   0.1000 
32    C15      1.6390  -40.0610   21.0880 C.3     1  LIG  -0.1196  -0.2000 
33    H13      0.6832  -39.9283   21.5242 H       1  LIG   0.0807   0.1000 
34    H14      1.5292  -40.4423   20.1061 H       1  LIG   0.0733   0.1000 
@<TRIPOS>BOND
1     2     1     ar
2     3     2     1
3     4     2     ar
4     5     4     1
5     6     4     ar
6     7     6     ar
7     8     7     1
8     9     8     1
9     10    8     1
10    11    10    1
11    12    11    ar
12    13    12    1
13    14    12    ar
14    15    14    1
15    16    14    ar
16    17    16    1
17    18    16    ar
18    19    11    ar
19    19    18    ar
20    20    19    1
21    21    1     ar
22    21    7     ar
23    21    20    1
24    22    6     1
25    23    22    1
26    24    22    1
27    25    22    1
28    26    10    2
29    27    20    1
30    28    27    1
31    29    27    1
32    30    29    1
33    31    29    1
34    32    27    1
35    32    29    1
36    33    32    1
37    34    32    1
@<TRIPOS>SUBSTRUCTURE
1   LIG    1    
 
########## Name        : 1VRT.lig
########## Description : AM1BCC_CHARGES =  -0.0002 ORIGINAL_CHARGES =  -0.0000

@<TRIPOS>MOLECULE
1VRT.lig
34    37    1     0     0    
SMALL
USER_CHARGES
@<TRIPOS>ATOM
1     N1       4.0540  -36.9310   22.2210 N.ar    1  LIG  -0.6650  -0.6200 
2     C1       4.9660  -36.2380   22.9390 C.ar    1  LIG   0.3947   0.1600 
3     H1       6.0082  -36.2811   22.6707 H       1  LIG   0.0281   0.1500 
4     C2       4.6240  -35.4500   24.0360 C.ar    1  LIG  -0.2334  -0.1500 
5     H2       5.3884  -34.9151   24.5740 H       1  LIG   0.1480   0.1500 
6     C3       3.3050  -35.3690   24.4150 C.ar    1  LIG  -0.0698  -0.1435 
7     C4       2.3460  -36.0770   23.6860 C.ar    1  LIG  -0.0398   0.1170 
8     N2       0.9890  -36.0280   24.1030 N.am    1  LIG  -0.4596  -0.5470 
9     H3       0.7643  -35.9928   25.0860 H       1  LIG   0.3311   0.3700 
10    C5      -0.1450  -36.0180   23.4080 C.2     1  LIG   0.7361   0.5438 
11    C6      -0.1190  -36.0770   21.8860 C.ar    1  LIG  -0.2550   0.0862 
12    C7      -1.1230  -35.3990   21.1890 C.ar    1  LIG  -0.0321  -0.1500 
13    H4      -1.7552  -34.6955   21.7041 H       1  LIG   0.1623   0.1500 
14    C8      -1.2960  -35.6300   19.8690 C.ar    1  LIG  -0.2723  -0.1500 
15    H5      -2.0662  -35.1073   19.3273 H       1  LIG   0.1522   0.1500 
16    C9      -0.4670  -36.5450   19.2400 C.ar    1  LIG   0.4373   0.1600 
17    H6      -0.5947  -36.7554   18.1915 H       1  LIG   0.0280   0.1500 
18    N3       0.5220  -37.2120   19.8740 N.ar    1  LIG  -0.6893  -0.6200 
19    C10      0.7040  -36.9790   21.1800 C.ar    1  LIG   0.6480   0.4100 
20    N4       1.7670  -37.6730   21.8260 N.pl3   1  LIG  -0.6924  -0.3690 
21    C11      2.7540  -36.8570   22.5840 C.ar    1  LIG   0.5805   0.4100 
22    C12      2.9040  -34.5090   25.6010 C.3     1  LIG  -0.0620   0.1435 
23    H7       2.2235  -33.7630   25.2820 H       1  LIG   0.0570   0.0000 
24    H8       2.4436  -35.1154   26.3371 H       1  LIG   0.0495   0.0000 
25    H9       3.7654  -34.0491   26.0108 H       1  LIG   0.0519   0.0000 
26    O1      -1.2400  -35.9060   23.9770 O.2     1  LIG  -0.6361  -0.5700 
27    C13      2.3440  -38.7570   21.0360 C.3     1  LIG   0.1354   0.0690 
28    H10      3.1238  -38.3754   20.4296 H       1  LIG   0.0981   0.1000 
29    C14      2.9380  -39.8900   21.8010 C.3     1  LIG  -0.1181  -0.2000 
30    H11      3.8890  -40.1268   21.3997 H       1  LIG   0.0732   0.1000 
31    H12      3.0430  -39.6129   22.8177 H       1  LIG   0.0789   0.1000 
32    C15      1.6390  -40.0610   21.0880 C.3     1  LIG  -0.1196  -0.2000 
33    H13      0.6832  -39.9283   21.5242 H       1  LIG   0.0807   0.1000 
34    H14      1.5292  -40.4423   20.1061 H       1  LIG   0.0733   0.1000 
@<TRIPOS>BOND
1     2     1     ar
2     3     2     1
3     4     2     ar
4     5     4     1
5     6     4     ar
6     7     6     ar
7     8     7     1
8     9     8     1
9     10    8     1
10    11    10    1
11    12    11    ar
12    13    12    1
13    14    12    ar
14    15    14    1
15    16    14    ar
16    17    16    1
17    18    16    ar
18    19    11    ar
19    19    18    ar
20    20    19    1
21    21    1     ar
22    21    7     ar
23    21    20    1
24    22    6     1
25    23    22    1
26    24    22    1
27    25    22    1
28    26    10    2
29    27    20    1
30    28    27    1
31    29    27    1
32    30    29    1
33    31    29    1
34    32    27    1
35    32    29    1
36    33    32    1
37    34    32    1
@<TRIPOS>SUBSTRUCTURE
1   LIG    1    
 
########## Name        : 1VRT.lig
########## Description : AM1BCC_CHARGES =  -0.0002 ORIGINAL_CHARGES =  -0.0000

@<TRIPOS>MOLECULE
1VRT.lig
34    37    1     0     0    
SMALL
USER_CHARGES
@<TRIPOS>ATOM
1     N1       4.0540  -36.9310   22.2210 N.ar    1  LIG  -0.6650  -0.6200 
2     C1       4.9660  -36.2380   22.9390 C.ar    1  LIG   0.3947   0.1600 
3     H1       6.0082  -36.2811   22.6707 H       1  LIG   0.0281   0.1500 
4     C2       4.6240  -35.4500   24.0360 C.ar    1  LIG  -0.2334  -0.1500 
5     H2       5.3884  -34.9151   24.5740 H       1  LIG   0.1480   0.1500 
6     C3       3.3050  -35.3690   24.4150 C.ar    1  LIG  -0.0698  -0.1435 
7     C4       2.3460  -36.0770   23.6860 C.ar    1  LIG  -0.0398   0.1170 
8     N2       0.9890  -36.0280   24.1030 N.am    1  LIG  -0.4596  -0.5470 
9     H3       0.7643  -35.9928   25.0860 H       1  LIG   0.3311   0.3700 
10    C5      -0.1450  -36.0180   23.4080 C.2     1  LIG   0.7361   0.5438 
11    C6      -0.1190  -36.0770   21.8860 C.ar    1  LIG  -0.2550   0.0862 
12    C7      -1.1230  -35.3990   21.1890 C.ar    1  LIG  -0.0321  -0.1500 
13    H4      -1.7552  -34.6955   21.7041 H       1  LIG   0.1623   0.1500 
14    C8      -1.2960  -35.6300   19.8690 C.ar    1  LIG  -0.2723  -0.1500 
15    H5      -2.0662  -35.1073   19.3273 H       1  LIG   0.1522   0.1500 
16    C9      -0.4670  -36.5450   19.2400 C.ar    1  LIG   0.4373   0.1600 
17    H6      -0.5947  -36.7554   18.1915 H       1  LIG   0.0280   0.1500 
18    N3       0.5220  -37.2120   19.8740 N.ar    1  LIG  -0.6893  -0.6200 
19    C10      0.7040  -36.9790   21.1800 C.ar    1  LIG   0.6480   0.4100 
20    N4       1.7670  -37.6730   21.8260 N.pl3   1  LIG  -0.6924  -0.3690 
21    C11      2.7540  -36.8570   22.5840 C.ar    1  LIG   0.5805   0.4100 
22    C12      2.9040  -34.5090   25.6010 C.3     1  LIG  -0.0620   0.1435 
23    H7       2.2235  -33.7630   25.2820 H       1  LIG   0.0570   0.0000 
24    H8       2.4436  -35.1154   26.3371 H       1  LIG   0.0495   0.0000 
25    H9       3.7654  -34.0491   26.0108 H       1  LIG   0.0519   0.0000 
26    O1      -1.2400  -35.9060   23.9770 O.2     1  LIG  -0.6361  -0.5700 
27    C13      2.3440  -38.7570   21.0360 C.3     1  LIG   0.1354   0.0690 
28    H10      3.1238  -38.3754   20.4296 H       1  LIG   0.0981   0.1000 
29    C14      2.9380  -39.8900   21.8010 C.3     1  LIG  -0.1181  -0.2000 
30    H11      3.8890  -40.1268   21.3997 H       1  LIG   0.0732   0.1000 
31    H12      3.0430  -39.6129   22.8177 H       1  LIG   0.0789   0.1000 
32    C15      1.6390  -40.0610   21.0880 C.3     1  LIG  -0.1196  -0.2000 
33    H13      0.6832  -39.9283   21.5242 H       1  LIG   0.0807   0.1000 
34    H14      1.5292  -40.4423   20.1061 H       1  LIG   0.0733   0.1000 
@<TRIPOS>BOND
1     2     1     ar
2     3     2     1
3     4     2     ar
4     5     4     1
5     6     4     ar
6     7     6     ar
7     8     7     1
8     9     8     1
9     10    8     1
10    11    10    1
11    12    11    ar
12    13    12    1
13    14    12    ar
14    15    14    1
15    16    14    ar
16    17    16    1
17    18    16    ar
18    19    11    ar
19    19    18    ar
20    20    19    1
21    21    1     ar
22    21    7     ar
23    21    20    1
24    22    6     1
25    23    22    1
26    24    22    1
27    25    22    1
28    26    10    2
29    27    20    1
30    28    27    1
31    29    27    1
32    30    29    1
33    31    29    1
34    32    27    1
35    32    29    1
36    33    32    1
37    34    32    1
@<TRIPOS>SUBSTRUCTURE
1   LIG    1    
 
########## Name        : 1VRT.lig
########## Description : AM1BCC_CHARGES =  -0.0002 ORIGINAL_CHARGES =  -0.0000

@<TRIPOS>MOLECULE
1VRT.lig
34    37    1     0     0    
SMALL
USER_CHARGES
@<TRIPOS>ATOM
1     N1       4.0540  -36.9310   22.2210 N.ar    1  LIG  -0.6650  -0.6200 
2     C1       4.9660  -36.2380   22.9390 C.ar    1  LIG   0.3947   0.1600 
3     H1       6.0082  -36.2811   22.6707 H       1  LIG   0.0281   0.1500 
4     C2       4.6240  -35.4500   24.0360 C.ar    1  LIG  -0.2334  -0.1500 
5     H2       5.3884  -34.9151   24.5740 H       1  LIG   0.1480   0.1500 
6     C3       3.3050  -35.3690   24.4150 C.ar    1  LIG  -0.0698  -0.1435 
7     C4       2.3460  -36.0770   23.6860 C.ar    1  LIG  -0.0398   0.1170 
8     N2       0.9890  -36.0280   24.1030 N.am    1  LIG  -0.4596  -0.5470 
9     H3       0.7643  -35.9928   25.0860 H       1  LIG   0.3311   0.3700 
10    C5      -0.1450  -36.0180   23.4080 C.2     1  LIG   0.7361   0.5438 
11    C6      -0.1190  -36.0770   21.8860 C.ar    1  LIG  -0.2550   0.0862 
12    C7      -1.1230  -35.3990   21.1890 C.ar    1  LIG  -0.0321  -0.1500 
13    H4      -1.7552  -34.6955   21.7041 H       1  LIG   0.1623   0.1500 
14    C8      -1.2960  -35.6300   19.8690 C.ar    1  LIG  -0.2723  -0.1500 
15    H5      -2.0662  -35.1073   19.3273 H       1  LIG   0.1522   0.1500 
16    C9      -0.4670  -36.5450   19.2400 C.ar    1  LIG   0.4373   0.1600 
17    H6      -0.5947  -36.7554   18.1915 H       1  LIG   0.0280   0.1500 
18    N3       0.5220  -37.2120   19.8740 N.ar    1  LIG  -0.6893  -0.6200 
19    C10      0.7040  -36.9790   21.1800 C.ar    1  LIG   0.6480   0.4100 
20    N4       1.7670  -37.6730   21.8260 N.pl3   1  LIG  -0.6924  -0.3690 
21    C11      2.7540  -36.8570   22.5840 C.ar    1  LIG   0.5805   0.4100 
22    C12      2.9040  -34.5090   25.6010 C.3     1  LIG  -0.0620   0.1435 
23    H7       2.2235  -33.7630   25.2820 H       1  LIG   0.0570   0.0000 
24    H8       2.4436  -35.1154   26.3371 H       1  LIG   0.0495   0.0000 
25    H9       3.7654  -34.0491   26.0108 H       1  LIG   0.0519   0.0000 
26    O1      -1.2400  -35.9060   23.9770 O.2     1  LIG  -0.6361  -0.5700 
27    C13      2.3440  -38.7570   21.0360 C.3     1  LIG   0.1354   0.0690 
28    H10      3.1238  -38.3754   20.4296 H       1  LIG   0.0981   0.1000 
29    C14      2.9380  -39.8900   21.8010 C.3     1  LIG  -0.1181  -0.2000 
30    H11      3.8890  -40.1268   21.3997 H       1  LIG   0.0732   0.1000 
31    H12      3.0430  -39.6129   22.8177 H       1  LIG   0.0789   0.1000 
32    C15      1.6390  -40.0610   21.0880 C.3     1  LIG  -0.1196  -0.2000 
33    H13      0.6832  -39.9283   21.5242 H       1  LIG   0.0807   0.1000 
34    H14      1.5292  -40.4423   20.1061 H       1  LIG   0.0733   0.1000 
@<TRIPOS>BOND
1     2     1     ar
2     3     2     1
3     4     2     ar
4     5     4     1
5     6     4     ar
6     7     6     ar
7     8     7     1
8     9     8     1
9     10    8     1
10    11    10    1
11    12    11    ar
12    13    12    1
13    14    12    ar
14    15    14    1
15    16    14    ar
16    17    16    1
17    18    16    ar
18    19    11    ar
19    19    18    ar
20    20    19    1
21    21    1     ar
22    21    7     ar
23    21    20    1
24    22    6     1
25    23    22    1
26    24    22    1
27    25    22    1
28    26    10    2
29    27    20    1
30    28    27    1
31    29    27    1
32    30    29    1
33    31    29    1
34    32    27    1
35    32    29    1
36    33    32    1
37    34    32    1
@<TRIPOS>SUBSTRUCTURE
1   LIG    1    
 
########## Name        : 1VRT.lig
########## Description : AM1BCC_CHARGES =  -0.0002 ORIGINAL_CHARGES =  -0.0000

@<TRIPOS>MOLECULE
1VRT.lig
34    37    1     0     0    
SMALL
USER_CHARGES
@<TRIPOS>ATOM
1     N1       4.0540  -36.9310   22.2210 N.ar    1  LIG  -0.6650  -0.6200 
2     C1       4.9660  -36.2380   22.9390 C.ar    1  LIG   0.3947   0.1600 
3     H1       6.0082  -36.2811   22.6707 H       1  LIG   0.0281   0.1500 
4     C2       4.6240  -35.4500   24.0360 C.ar    1  LIG  -0.2334  -0.1500 
5     H2       5.3884  -34.9151   24.5740 H       1  LIG   0.1480   0.1500 
6     C3       3.3050  -35.3690   24.4150 C.ar    1  LIG  -0.0698  -0.1435 
7     C4       2.3460  -36.0770   23.6860 C.ar    1  LIG  -0.0398   0.1170 
8     N2       0.9890  -36.0280   24.1030 N.am    1  LIG  -0.4596  -0.5470 
9     H3       0.7643  -35.9928   25.0860 H       1  LIG   0.3311   0.3700 
10    C5      -0.1450  -36.0180   23.4080 C.2     1  LIG   0.7361   0.5438 
11    C6      -0.1190  -36.0770   21.8860 C.ar    1  LIG  -0.2550   0.0862 
12    C7      -1.1230  -35.3990   21.1890 C.ar    1  LIG  -0.0321  -0.1500 
13    H4      -1.7552  -34.6955   21.7041 H       1  LIG   0.1623   0.1500 
14    C8      -1.2960  -35.6300   19.8690 C.ar    1  LIG  -0.2723  -0.1500 
15    H5      -2.0662  -35.1073   19.3273 H       1  LIG   0.1522   0.1500 
16    C9      -0.4670  -36.5450   19.2400 C.ar    1  LIG   0.4373   0.1600 
17    H6      -0.5947  -36.7554   18.1915 H       1  LIG   0.0280   0.1500 
18    N3       0.5220  -37.2120   19.8740 N.ar    1  LIG  -0.6893  -0.6200 
19    C10      0.7040  -36.9790   21.1800 C.ar    1  LIG   0.6480   0.4100 
20    N4       1.7670  -37.6730   21.8260 N.pl3   1  LIG  -0.6924  -0.3690 
21    C11      2.7540  -36.8570   22.5840 C.ar    1  LIG   0.5805   0.4100 
22    C12      2.9040  -34.5090   25.6010 C.3     1  LIG  -0.0620   0.1435 
23    H7       2.2235  -33.7630   25.2820 H       1  LIG   0.0570   0.0000 
24    H8       2.4436  -35.1154   26.3371 H       1  LIG   0.0495   0.0000 
25    H9       3.7654  -34.0491   26.0108 H       1  LIG   0.0519   0.0000 
26    O1      -1.2400  -35.9060   23.9770 O.2     1  LIG  -0.6361  -0.5700 
27    C13      2.3440  -38.7570   21.0360 C.3     1  LIG   0.1354   0.0690 
28    H10      3.1238  -38.3754   20.4296 H       1  LIG   0.0981   0.1000 
29    C14      2.9380  -39.8900   21.8010 C.3     1  LIG  -0.1181  -0.2000 
30    H11      3.8890  -40.1268   21.3997 H       1  LIG   0.0732   0.1000 
31    H12      3.0430  -39.6129   22.8177 H       1  LIG   0.0789   0.1000 
32    C15      1.6390  -40.0610   21.0880 C.3     1  LIG  -0.1196  -0.2000 
33    H13      0.6832  -39.9283   21.5242 H       1  LIG   0.0807   0.1000 
34    H14      1.5292  -40.4423   20.1061 H       1  LIG   0.0733   0.1000 
@<TRIPOS>BOND
1     2     1     ar
2     3     2     1
3     4     2     ar
4     5     4     1
5     6     4     ar
6     7     6     ar
7     8     7     1
8     9     8     1
9     10    8     1
10    11    10    1
11    12    11    ar
12    13    12    1
13    14    12    ar
14    15    14    1
15    16    14    ar
16    17    16    1
17    18    16    ar
18    19    11    ar
19    19    18    ar
20    20    19    1
21    21    1     ar
22    21    7     ar
23    21    20    1
24    22    6     1
25    23    22    1
26    24    22    1
27    25    22    1
28    26    10    2
29    27    20    1
30    28    27    1
31    29    27    1
32    30    29    1
33    31    29    1
34    32    27    1
35    32    29    1
36    33    32    1
37    34    32    1
@<TRIPOS>SUBSTRUCTURE
1   LIG    1    
 
########## Name        : 1VRT.lig
########## Description : AM1BCC_CHARGES =  -0.0002 ORIGINAL_CHARGES =  -0.0000

@<TRIPOS>MOLECULE
1VRT.lig
34    37    1     0     0    
SMALL
USER_CHARGES
@<TRIPOS>ATOM
1     N1       4.0540  -36.9310   22.2210 N.ar    1  LIG  -0.6650  -0.6200 
2     C1       4.9660  -36.2380   22.9390 C.ar    1  LIG   0.3947   0.1600 
3     H1       6.0082  -36.2811   22.6707 H       1  LIG   0.0281   0.1500 
4     C2       4.6240  -35.4500   24.0360 C.ar    1  LIG  -0.2334  -0.1500 
5     H2       5.3884  -34.9151   24.5740 H       1  LIG   0.1480   0.1500 
6     C3       3.3050  -35.3690   24.4150 C.ar    1  LIG  -0.0698  -0.1435 
7     C4       2.3460  -36.0770   23.6860 C.ar    1  LIG  -0.0398   0.1170 
8     N2       0.9890  -36.0280   24.1030 N.am    1  LIG  -0.4596  -0.5470 
9     H3       0.7643  -35.9928   25.0860 H       1  LIG   0.3311   0.3700 
10    C5      -0.1450  -36.0180   23.4080 C.2     1  LIG   0.7361   0.5438 
11    C6      -0.1190  -36.0770   21.8860 C.ar    1  LIG  -0.2550   0.0862 
12    C7      -1.1230  -35.3990   21.1890 C.ar    1  LIG  -0.0321  -0.1500 
13    H4      -1.7552  -34.6955   21.7041 H       1  LIG   0.1623   0.1500 
14    C8      -1.2960  -35.6300   19.8690 C.ar    1  LIG  -0.2723  -0.1500 
15    H5      -2.0662  -35.1073   19.3273 H       1  LIG   0.1522   0.1500 
16    C9      -0.4670  -36.5450   19.2400 C.ar    1  LIG   0.4373   0.1600 
17    H6      -0.5947  -36.7554   18.1915 H       1  LIG   0.0280   0.1500 
18    N3       0.5220  -37.2120   19.8740 N.ar    1  LIG  -0.6893  -0.6200 
19    C10      0.7040  -36.9790   21.1800 C.ar    1  LIG   0.6480   0.4100 
20    N4       1.7670  -37.6730   21.8260 N.pl3   1  LIG  -0.6924  -0.3690 
21    C11      2.7540  -36.8570   22.5840 C.ar    1  LIG   0.5805   0.4100 
22    C12      2.9040  -34.5090   25.6010 C.3     1  LIG  -0.0620   0.1435 
23    H7       2.2235  -33.7630   25.2820 H       1  LIG   0.0570   0.0000 
24    H8       2.4436  -35.1154   26.3371 H       1  LIG   0.0495   0.0000 
25    H9       3.7654  -34.0491   26.0108 H       1  LIG   0.0519   0.0000 
26    O1      -1.2400  -35.9060   23.9770 O.2     1  LIG  -0.6361  -0.5700 
27    C13      2.3440  -38.7570   21.0360 C.3     1  LIG   0.1354   0.0690 
28    H10      3.1238  -38.3754   20.4296 H       1  LIG   0.0981   0.1000 
29    C14      2.9380  -39.8900   21.8010 C.3     1  LIG  -0.1181  -0.2000 
30    H11      3.8890  -40.1268   21.3997 H       1  LIG   0.0732   0.1000 
31    H12      3.0430  -39.6129   22.8177 H       1  LIG   0.0789   0.1000 
32    C15      1.6390  -40.0610   21.0880 C.3     1  LIG  -0.1196  -0.2000 
33    H13      0.6832  -39.9283   21.5242 H       1  LIG   0.0807   0.1000 
34    H14      1.5292  -40.4423   20.1061 H       1  LIG   0.0733   0.1000 
@<TRIPOS>BOND
1     2     1     ar
2     3     2     1
3     4     2     ar
4     5     4     1
5     6     4     ar
6     7     6     ar
7     8     7     1
8     9     8     1
9     10    8     1
10    11    10    1
11    12    11    ar
12    13    12    1
13    14    12    ar
14    15    14    1
15    16    14    ar
16    17    16    1
17    18    16    ar
18    19    11    ar
19    19    18    ar
20    20    19    1
21    21    1     ar
22    21    7     ar
23    21    20    1
24    22    6     1
25    23    22    1
26    24    22    1
27    25    22    1
28    26    10    2
29    27    20    1
30    28    27    1
31    29    27    1
32    30    29    1
33    31    29    1
34    32    27    1
35    32    29    1
36    33    32    1
37    34    32    1
@<TRIPOS>SUBSTRUCTURE
1   LIG    1    
 
########## Name        : 1VRT.lig
########## Description : AM1BCC_CHARGES =  -0.0002 ORIGINAL_CHARGES =  -0.0000

@<TRIPOS>MOLECULE
1VRT.lig
34    37    1     0     0    
SMALL
USER_CHARGES
@<TRIPOS>ATOM
1     N1       4.0540  -36.9310   22.2210 N.ar    1  LIG  -0.6650  -0.6200 
2     C1       4.9660  -36.2380   22.9390 C.ar    1  LIG   0.3947   0.1600 
3     H1       6.0082  -36.2811   22.6707 H       1  LIG   0.0281   0.1500 
4     C2       4.6240  -35.4500   24.0360 C.ar    1  LIG  -0.2334  -0.1500 
5     H2       5.3884  -34.9151   24.5740 H       1  LIG   0.1480   0.1500 
6     C3       3.3050  -35.3690   24.4150 C.ar    1  LIG  -0.0698  -0.1435 
7     C4       2.3460  -36.0770   23.6860 C.ar    1  LIG  -0.0398   0.1170 
8     N2       0.9890  -36.0280   24.1030 N.am    1  LIG  -0.4596  -0.5470 
9     H3       0.7643  -35.9928   25.0860 H       1  LIG   0.3311   0.3700 
10    C5      -0.1450  -36.0180   23.4080 C.2     1  LIG   0.7361   0.5438 
11    C6      -0.1190  -36.0770   21.8860 C.ar    1  LIG  -0.2550   0.0862 
12    C7      -1.1230  -35.3990   21.1890 C.ar    1  LIG  -0.0321  -0.1500 
13    H4      -1.7552  -34.6955   21.7041 H       1  LIG   0.1623   0.1500 
14    C8      -1.2960  -35.6300   19.8690 C.ar    1  LIG  -0.2723  -0.1500 
15    H5      -2.0662  -35.1073   19.3273 H       1  LIG   0.1522   0.1500 
16    C9      -0.4670  -36.5450   19.2400 C.ar    1  LIG   0.4373   0.1600 
17    H6      -0.5947  -36.7554   18.1915 H       1  LIG   0.0280   0.1500 
18    N3       0.5220  -37.2120   19.8740 N.ar    1  LIG  -0.6893  -0.6200 
19    C10      0.7040  -36.9790   21.1800 C.ar    1  LIG   0.6480   0.4100 
20    N4       1.7670  -37.6730   21.8260 N.pl3   1  LIG  -0.6924  -0.3690 
21    C11      2.7540  -36.8570   22.5840 C.ar    1  LIG   0.5805   0.4100 
22    C12      2.9040  -34.5090   25.6010 C.3     1  LIG  -0.0620   0.1435 
23    H7       2.2235  -33.7630   25.2820 H       1  LIG   0.0570   0.0000 
24    H8       2.4436  -35.1154   26.3371 H       1  LIG   0.0495   0.0000 
25    H9       3.7654  -34.0491   26.0108 H       1  LIG   0.0519   0.0000 
26    O1      -1.2400  -35.9060   23.9770 O.2     1  LIG  -0.6361  -0.5700 
27    C13      2.3440  -38.7570   21.0360 C.3     1  LIG   0.1354   0.0690 
28    H10      3.1238  -38.3754   20.4296 H       1  LIG   0.0981   0.1000 
29    C14      2.9380  -39.8900   21.8010 C.3     1  LIG  -0.1181  -0.2000 
30    H11      3.8890  -40.1268   21.3997 H       1  LIG   0.0732   0.1000 
31    H12      3.0430  -39.6129   22.8177 H       1  LIG   0.0789   0.1000 
32    C15      1.6390  -40.0610   21.0880 C.3     1  LIG  -0.1196  -0.2000 
33    H13      0.6832  -39.9283   21.5242 H       1  LIG   0.0807   0.1000 
34    H14      1.5292  -40.4423   20.1061 H       1  LIG   0.0733   0.1000 
@<TRIPOS>BOND
1     2     1     ar
2     3     2     1
3     4     2     ar
4     5     4     1
5     6     4     ar
6     7     6     ar
7     8     7     1
8     9     8     1
9     10    8     1
10    11    10    1
11    12    11    ar
12    13    12    1
13    14    12    ar
14    15    14    1
15    16    14    ar
16    17    16    1
17    18    16    ar
18    19    11    ar
19    19    18    ar
20    20    19    1
21    21    1     ar
22    21    7     ar
23    21    20    1
24    22    6     1
25    23    22    1
26    24    22    1
27    25    22    1
28    26    10    2
29    27    20    1
30    28    27    1
31    29    27    1
32    30    29    1
33    31    29    1
34    32    27    1
35    32    29    1
36    33    32    1
37    34    32    1
@<TRIPOS>SUBSTRUCTURE
1   LIG    1    
 
########## Name        : 1VRT.lig
########## Description : AM1BCC_CHARGES =  -0.0002 ORIGINAL_CHARGES =  -0.0000

@<TRIPOS>MOLECULE
1VRT.lig
34    37    1     0     0    
SMALL
USER_CHARGES
@<TRIPOS>ATOM
1     N1       4.0540  -36.9310   22.2210 N.ar    1  LIG  -0.6650  -0.6200 
2     C1       4.9660  -36.2380   22.9390 C.ar    1  LIG   0.3947   0.1600 
3     H1       6.0082  -36.2811   22.6707 H       1  LIG   0.0281   0.1500 
4     C2       4.6240  -35.4500   24.0360 C.ar    1  LIG  -0.2334  -0.1500 
5     H2       5.3884  -34.9151   24.5740 H       1  LIG   0.1480   0.1500 
6     C3       3.3050  -35.3690   24.4150 C.ar    1  LIG  -0.0698  -0.1435 
7     C4       2.3460  -36.0770   23.6860 C.ar    1  LIG  -0.0398   0.1170 
8     N2       0.9890  -36.0280   24.1030 N.am    1  LIG  -0.4596  -0.5470 
9     H3       0.7643  -35.9928   25.0860 H       1  LIG   0.3311   0.3700 
10    C5      -0.1450  -36.0180   23.4080 C.2     1  LIG   0.7361   0.5438 
11    C6      -0.1190  -36.0770   21.8860 C.ar    1  LIG  -0.2550   0.0862 
12    C7      -1.1230  -35.3990   21.1890 C.ar    1  LIG  -0.0321  -0.1500 
13    H4      -1.7552  -34.6955   21.7041 H       1  LIG   0.1623   0.1500 
14    C8      -1.2960  -35.6300   19.8690 C.ar    1  LIG  -0.2723  -0.1500 
15    H5      -2.0662  -35.1073   19.3273 H       1  LIG   0.1522   0.1500 
16    C9      -0.4670  -36.5450   19.2400 C.ar    1  LIG   0.4373   0.1600 
17    H6      -0.5947  -36.7554   18.1915 H       1  LIG   0.0280   0.1500 
18    N3       0.5220  -37.2120   19.8740 N.ar    1  LIG  -0.6893  -0.6200 
19    C10      0.7040  -36.9790   21.1800 C.ar    1  LIG   0.6480   0.4100 
20    N4       1.7670  -37.6730   21.8260 N.pl3   1  LIG  -0.6924  -0.3690 
21    C11      2.7540  -36.8570   22.5840 C.ar    1  LIG   0.5805   0.4100 
22    C12      2.9040  -34.5090   25.6010 C.3     1  LIG  -0.0620   0.1435 
23    H7       2.2235  -33.7630   25.2820 H       1  LIG   0.0570   0.0000 
24    H8       2.4436  -35.1154   26.3371 H       1  LIG   0.0495   0.0000 
25    H9       3.7654  -34.0491   26.0108 H       1  LIG   0.0519   0.0000 
26    O1      -1.2400  -35.9060   23.9770 O.2     1  LIG  -0.6361  -0.5700 
27    C13      2.3440  -38.7570   21.0360 C.3     1  LIG   0.1354   0.0690 
28    H10      3.1238  -38.3754   20.4296 H       1  LIG   0.0981   0.1000 
29    C14      2.9380  -39.8900   21.8010 C.3     1  LIG  -0.1181  -0.2000 
30    H11      3.8890  -40.1268   21.3997 H       1  LIG   0.0732   0.1000 
31    H12      3.0430  -39.6129   22.8177 H       1  LIG   0.0789   0.1000 
32    C15      1.6390  -40.0610   21.0880 C.3     1  LIG  -0.1196  -0.2000 
33    H13      0.6832  -39.9283   21.5242 H       1  LIG   0.0807   0.1000 
34    H14      1.5292  -40.4423   20.1061 H       1  LIG   0.0733   0.1000 
@<TRIPOS>BOND
1     2     1     ar
2     3     2     1
3     4     2     ar
4     5     4     1
5     6     4     ar
6     7     6     ar
7     8     7     1
8     9     8     1
9     10    8     1
10    11    10    1
11    12    11    ar
12    13    12    1
13    14    12    ar
14    15    14    1
15    16    14    ar
16    17    16    1
17    18    16    ar
18    19    11    ar
19    19    18    ar
20    20    19    1
21    21    1     ar
22    21    7     ar
23    21    20    1
24    22    6     1
25    23    22    1
26    24    22    1
27    25    22    1
28    26    10    2
29    27    20    1
30    28    27    1
31    29    27    1
32    30    29    1
33    31    29    1
34    32    27    1
35    32    29    1
36    33    32    1
37    34    32    1
@<TRIPOS>SUBSTRUCTURE
1   LIG    1    
 
########## Name        : 1VRT.lig
########## Description : AM1BCC_CHARGES =  -0.0002 ORIGINAL_CHARGES =  -0.0000

@<TRIPOS>MOLECULE
1VRT.lig
34    37    1     0     0    
SMALL
USER_CHARGES
@<TRIPOS>ATOM
1     N1       4.0540  -36.9310   22.2210 N.ar    1  LIG  -0.6650  -0.6200 
2     C1       4.9660  -36.2380   22.9390 C.ar    1  LIG   0.3947   0.1600 
3     H1       6.0082  -36.2811   22.6707 H       1  LIG   0.0281   0.1500 
4     C2       4.6240  -35.4500   24.0360 C.ar    1  LIG  -0.2334  -0.1500 
5     H2       5.3884  -34.9151   24.5740 H       1  LIG   0.1480   0.1500 
6     C3       3.3050  -35.3690   24.4150 C.ar    1  LIG  -0.0698  -0.1435 
7     C4       2.3460  -36.0770   23.6860 C.ar    1  LIG  -0.0398   0.1170 
8     N2       0.9890  -36.0280   24.1030 N.am    1  LIG  -0.4596  -0.5470 
9     H3       0.7643  -35.9928   25.0860 H       1  LIG   0.3311   0.3700 
10    C5      -0.1450  -36.0180   23.4080 C.2     1  LIG   0.7361   0.5438 
11    C6      -0.1190  -36.0770   21.8860 C.ar    1  LIG  -0.2550   0.0862 
12    C7      -1.1230  -35.3990   21.1890 C.ar    1  LIG  -0.0321  -0.1500 
13    H4      -1.7552  -34.6955   21.7041 H       1  LIG   0.1623   0.1500 
14    C8      -1.2960  -35.6300   19.8690 C.ar    1  LIG  -0.2723  -0.1500 
15    H5      -2.0662  -35.1073   19.3273 H       1  LIG   0.1522   0.1500 
16    C9      -0.4670  -36.5450   19.2400 C.ar    1  LIG   0.4373   0.1600 
17    H6      -0.5947  -36.7554   18.1915 H       1  LIG   0.0280   0.1500 
18    N3       0.5220  -37.2120   19.8740 N.ar    1  LIG  -0.6893  -0.6200 
19    C10      0.7040  -36.9790   21.1800 C.ar    1  LIG   0.6480   0.4100 
20    N4       1.7670  -37.6730   21.8260 N.pl3   1  LIG  -0.6924  -0.3690 
21    C11      2.7540  -36.8570   22.5840 C.ar    1  LIG   0.5805   0.4100 
22    C12      2.9040  -34.5090   25.6010 C.3     1  LIG  -0.0620   0.1435 
23    H7       2.2235  -33.7630   25.2820 H       1  LIG   0.0570   0.0000 
24    H8       2.4436  -35.1154   26.3371 H       1  LIG   0.0495   0.0000 
25    H9       3.7654  -34.0491   26.0108 H       1  LIG   0.0519   0.0000 
26    O1      -1.2400  -35.9060   23.9770 O.2     1  LIG  -0.6361  -0.5700 
27    C13      2.3440  -38.7570   21.0360 C.3     1  LIG   0.1354   0.0690 
28    H10      3.1238  -38.3754   20.4296 H       1  LIG   0.0981   0.1000 
29    C14      2.9380  -39.8900   21.8010 C.3     1  LIG  -0.1181  -0.2000 
30    H11      3.8890  -40.1268   21.3997 H       1  LIG   0.0732   0.1000 
31    H12      3.0430  -39.6129   22.8177 H       1  LIG   0.0789   0.1000 
32    C15      1.6390  -40.0610   21.0880 C.3     1  LIG  -0.1196  -0.2000 
33    H13      0.6832  -39.9283   21.5242 H       1  LIG   0.0807   0.1000 
34    H14      1.5292  -40.4423   20.1061 H       1  LIG   0.0733   0.1000 
@<TRIPOS>BOND
1     2     1     ar
2     3     2     1
3     4     2     ar
4     5     4     1
5     6     4     ar
6     7     6     ar
7     8     7     1
8     9     8     1
9     10    8     1
10    11    10    1
11    12    11    ar
12    13    12    1
13    14    12    ar
14    15    14    1
15    16    14    ar
16    17    16    1
17    18    16    ar
18    19    11    ar
19    19    18    ar
20    20    19    1
21    21    1     ar
22    21    7     ar
23    21    20    1
24    22    6     1
25    23    22    1
26    24    22    1
27    25    22    1
28    26    10    2
29    27    20    1
30    28    27    1
31    29    27    1
32    30    29    1
33    31    29    1
34    32    27    1
35    32    29    1
36    33    32    1
37    34    32    1
@<TRIPOS>SUBSTRUCTURE
1   LIG    1    
 
########## Name        : 1VRT.lig
########## Description : AM1BCC_CHARGES =  -0.0002 ORIGINAL_CHARGES =  -0.0000

@<TRIPOS>MOLECULE
1VRT.lig
34    37    1     0     0    
SMALL
USER_CHARGES
@<TRIPOS>ATOM
1     N1       4.0540  -36.9310   22.2210 N.ar    1  LIG  -0.6650  -0.6200 
2     C1       4.9660  -36.2380   22.9390 C.ar    1  LIG   0.3947   0.1600 
3     H1       6.0082  -36.2811   22.6707 H       1  LIG   0.0281   0.1500 
4     C2       4.6240  -35.4500   24.0360 C.ar    1  LIG  -0.2334  -0.1500 
5     H2       5.3884  -34.9151   24.5740 H       1  LIG   0.1480   0.1500 
6     C3       3.3050  -35.3690   24.4150 C.ar    1  LIG  -0.0698  -0.1435 
7     C4       2.3460  -36.0770   23.6860 C.ar    1  LIG  -0.0398   0.1170 
8     N2       0.9890  -36.0280   24.1030 N.am    1  LIG  -0.4596  -0.5470 
9     H3       0.7643  -35.9928   25.0860 H       1  LIG   0.3311   0.3700 
10    C5      -0.1450  -36.0180   23.4080 C.2     1  LIG   0.7361   0.5438 
11    C6      -0.1190  -36.0770   21.8860 C.ar    1  LIG  -0.2550   0.0862 
12    C7      -1.1230  -35.3990   21.1890 C.ar    1  LIG  -0.0321  -0.1500 
13    H4      -1.7552  -34.6955   21.7041 H       1  LIG   0.1623   0.1500 
14    C8      -1.2960  -35.6300   19.8690 C.ar    1  LIG  -0.2723  -0.1500 
15    H5      -2.0662  -35.1073   19.3273 H       1  LIG   0.1522   0.1500 
16    C9      -0.4670  -36.5450   19.2400 C.ar    1  LIG   0.4373   0.1600 
17    H6      -0.5947  -36.7554   18.1915 H       1  LIG   0.0280   0.1500 
18    N3       0.5220  -37.2120   19.8740 N.ar    1  LIG  -0.6893  -0.6200 
19    C10      0.7040  -36.9790   21.1800 C.ar    1  LIG   0.6480   0.4100 
20    N4       1.7670  -37.6730   21.8260 N.pl3   1  LIG  -0.6924  -0.3690 
21    C11      2.7540  -36.8570   22.5840 C.ar    1  LIG   0.5805   0.4100 
22    C12      2.9040  -34.5090   25.6010 C.3     1  LIG  -0.0620   0.1435 
23    H7       2.2235  -33.7630   25.2820 H       1  LIG   0.0570   0.0000 
24    H8       2.4436  -35.1154   26.3371 H       1  LIG   0.0495   0.0000 
25    H9       3.7654  -34.0491   26.0108 H       1  LIG   0.0519   0.0000 
26    O1      -1.2400  -35.9060   23.9770 O.2     1  LIG  -0.6361  -0.5700 
27    C13      2.3440  -38.7570   21.0360 C.3     1  LIG   0.1354   0.0690 
28    H10      3.1238  -38.3754   20.4296 H       1  LIG   0.0981   0.1000 
29    C14      2.9380  -39.8900   21.8010 C.3     1  LIG  -0.1181  -0.2000 
30    H11      3.8890  -40.1268   21.3997 H       1  LIG   0.0732   0.1000 
31    H12      3.0430  -39.6129   22.8177 H       1  LIG   0.0789   0.1000 
32    C15      1.6390  -40.0610   21.0880 C.3     1  LIG  -0.1196  -0.2000 
33    H13      0.6832  -39.9283   21.5242 H       1  LIG   0.0807   0.1000 
34    H14      1.5292  -40.4423   20.1061 H       1  LIG   0.0733   0.1000 
@<TRIPOS>BOND
1     2     1     ar
2     3     2     1
3     4     2     ar
4     5     4     1
5     6     4     ar
6     7     6     ar
7     8     7     1
8     9     8     1
9     10    8     1
10    11    10    1
11    12    11    ar
12    13    12    1
13    14    12    ar
14    15    14    1
15    16    14    ar
16    17    16    1
17    18    16    ar
18    19    11    ar
19    19    18    ar
20    20    19    1
21    21    1     ar
22    21    7     ar
23    21    20    1
24    22    6     1
25    23    22    1
26    24    22    1
27    25    22    1
28    26    10    2
29    27    20    1
30    28    27    1
31    29    27    1
32    30    29    1
33    31    29    1
34    32    27    1
35    32    29    1
36    33    32    1
37    34    32    1
@<TRIPOS>SUBSTRUCTURE
1   LIG    1    
 
########## Name        : 1VRT.lig
########## Description : AM1BCC_CHARGES =  -0.0002 ORIGINAL_CHARGES =  -0.0000

@<TRIPOS>MOLECULE
1VRT.lig
34    37    1     0     0    
SMALL
USER_CHARGES
@<TRIPOS>ATOM
1     N1       4.0540  -36.9310   22.2210 N.ar    1  LIG  -0.6650  -0.6200 
2     C1       4.9660  -36.2380   22.9390 C.ar    1  LIG   0.3947   0.1600 
3     H1       6.0082  -36.2811   22.6707 H       1  LIG   0.0281   0.1500 
4     C2       4.6240  -35.4500   24.0360 C.ar    1  LIG  -0.2334  -0.1500 
5     H2       5.3884  -34.9151   24.5740 H       1  LIG   0.1480   0.1500 
6     C3       3.3050  -35.3690   24.4150 C.ar    1  LIG  -0.0698  -0.1435 
7     C4       2.3460  -36.0770   23.6860 C.ar    1  LIG  -0.0398   0.1170 
8     N2       0.9890  -36.0280   24.1030 N.am    1  LIG  -0.4596  -0.5470 
9     H3       0.7643  -35.9928   25.0860 H       1  LIG   0.3311   0.3700 
10    C5      -0.1450  -36.0180   23.4080 C.2     1  LIG   0.7361   0.5438 
11    C6      -0.1190  -36.0770   21.8860 C.ar    1  LIG  -0.2550   0.0862 
12    C7      -1.1230  -35.3990   21.1890 C.ar    1  LIG  -0.0321  -0.1500 
13    H4      -1.7552  -34.6955   21.7041 H       1  LIG   0.1623   0.1500 
14    C8      -1.2960  -35.6300   19.8690 C.ar    1  LIG  -0.2723  -0.1500 
15    H5      -2.0662  -35.1073   19.3273 H       1  LIG   0.1522   0.1500 
16    C9      -0.4670  -36.5450   19.2400 C.ar    1  LIG   0.4373   0.1600 
17    H6      -0.5947  -36.7554   18.1915 H       1  LIG   0.0280   0.1500 
18    N3       0.5220  -37.2120   19.8740 N.ar    1  LIG  -0.6893  -0.6200 
19    C10      0.7040  -36.9790   21.1800 C.ar    1  LIG   0.6480   0.4100 
20    N4       1.7670  -37.6730   21.8260 N.pl3   1  LIG  -0.6924  -0.3690 
21    C11      2.7540  -36.8570   22.5840 C.ar    1  LIG   0.5805   0.4100 
22    C12      2.9040  -34.5090   25.6010 C.3     1  LIG  -0.0620   0.1435 
23    H7       2.2235  -33.7630   25.2820 H       1  LIG   0.0570   0.0000 
24    H8       2.4436  -35.1154   26.3371 H       1  LIG   0.0495   0.0000 
25    H9       3.7654  -34.0491   26.0108 H       1  LIG   0.0519   0.0000 
26    O1      -1.2400  -35.9060   23.9770 O.2     1  LIG  -0.6361  -0.5700 
27    C13      2.3440  -38.7570   21.0360 C.3     1  LIG   0.1354   0.0690 
28    H10      3.1238  -38.3754   20.4296 H       1  LIG   0.0981   0.1000 
29    C14      2.9380  -39.8900   21.8010 C.3     1  LIG  -0.1181  -0.2000 
30    H11      3.8890  -40.1268   21.3997 H       1  LIG   0.0732   0.1000 
31    H12      3.0430  -39.6129   22.8177 H       1  LIG   0.0789   0.1000 
32    C15      1.6390  -40.0610   21.0880 C.3     1  LIG  -0.1196  -0.2000 
33    H13      0.6832  -39.9283   21.5242 H       1  LIG   0.0807   0.1000 
34    H14      1.5292  -40.4423   20.1061 H       1  LIG   0.0733   0.1000 
@<TRIPOS>BOND
1     2     1     ar
2     3     2     1
3     4     2     ar
4     5     4     1
5     6     4     ar
6     7     6     ar
7     8     7     1
8     9     8     1
9     10    8     1
10    11    10    1
11    12    11    ar
12    13    12    1
13    14    12    ar
14    15    14    1
15    16    14    ar
16    17    16    1
17    18    16    ar
18    19    11    ar
19    19    18    ar
20    20    19    1
21    21    1     ar
22    21    7     ar
23    21    20    1
24    22    6     1
25    23    22    1
26    24    22    1
27    25    22    1
28    26    10    2
29    27    20    1
30    28    27    1
31    29    27    1
32    30    29    1
33    31    29    1
34    32    27    1
35    32    29    1
36    33    32    1
37    34    32    1
@<TRIPOS>SUBSTRUCTURE
1   LIG    1    
 
########## Name        : 1VRT.lig
########## Description : AM1BCC_CHARGES =  -0.0002 ORIGINAL_CHARGES =  -0.0000

@<TRIPOS>MOLECULE
1VRT.lig
34    37    1     0     0    
SMALL
USER_CHARGES
@<TRIPOS>ATOM
1     N1       4.0540  -36.9310   22.2210 N.ar    1  LIG  -0.6650  -0.6200 
2     C1       4.9660  -36.2380   22.9390 C.ar    1  LIG   0.3947   0.1600 
3     H1       6.0082  -36.2811   22.6707 H       1  LIG   0.0281   0.1500 
4     C2       4.6240  -35.4500   24.0360 C.ar    1  LIG  -0.2334  -0.1500 
5     H2       5.3884  -34.9151   24.5740 H       1  LIG   0.1480   0.1500 
6     C3       3.3050  -35.3690   24.4150 C.ar    1  LIG  -0.0698  -0.1435 
7     C4       2.3460  -36.0770   23.6860 C.ar    1  LIG  -0.0398   0.1170 
8     N2       0.9890  -36.0280   24.1030 N.am    1  LIG  -0.4596  -0.5470 
9     H3       0.7643  -35.9928   25.0860 H       1  LIG   0.3311   0.3700 
10    C5      -0.1450  -36.0180   23.4080 C.2     1  LIG   0.7361   0.5438 
11    C6      -0.1190  -36.0770   21.8860 C.ar    1  LIG  -0.2550   0.0862 
12    C7      -1.1230  -35.3990   21.1890 C.ar    1  LIG  -0.0321  -0.1500 
13    H4      -1.7552  -34.6955   21.7041 H       1  LIG   0.1623   0.1500 
14    C8      -1.2960  -35.6300   19.8690 C.ar    1  LIG  -0.2723  -0.1500 
15    H5      -2.0662  -35.1073   19.3273 H       1  LIG   0.1522   0.1500 
16    C9      -0.4670  -36.5450   19.2400 C.ar    1  LIG   0.4373   0.1600 
17    H6      -0.5947  -36.7554   18.1915 H       1  LIG   0.0280   0.1500 
18    N3       0.5220  -37.2120   19.8740 N.ar    1  LIG  -0.6893  -0.6200 
19    C10      0.7040  -36.9790   21.1800 C.ar    1  LIG   0.6480   0.4100 
20    N4       1.7670  -37.6730   21.8260 N.pl3   1  LIG  -0.6924  -0.3690 
21    C11      2.7540  -36.8570   22.5840 C.ar    1  LIG   0.5805   0.4100 
22    C12      2.9040  -34.5090   25.6010 C.3     1  LIG  -0.0620   0.1435 
23    H7       2.2235  -33.7630   25.2820 H       1  LIG   0.0570   0.0000 
24    H8       2.4436  -35.1154   26.3371 H       1  LIG   0.0495   0.0000 
25    H9       3.7654  -34.0491   26.0108 H       1  LIG   0.0519   0.0000 
26    O1      -1.2400  -35.9060   23.9770 O.2     1  LIG  -0.6361  -0.5700 
27    C13      2.3440  -38.7570   21.0360 C.3     1  LIG   0.1354   0.0690 
28    H10      3.1238  -38.3754   20.4296 H       1  LIG   0.0981   0.1000 
29    C14      2.9380  -39.8900   21.8010 C.3     1  LIG  -0.1181  -0.2000 
30    H11      3.8890  -40.1268   21.3997 H       1  LIG   0.0732   0.1000 
31    H12      3.0430  -39.6129   22.8177 H       1  LIG   0.0789   0.1000 
32    C15      1.6390  -40.0610   21.0880 C.3     1  LIG  -0.1196  -0.2000 
33    H13      0.6832  -39.9283   21.5242 H       1  LIG   0.0807   0.1000 
34    H14      1.5292  -40.4423   20.1061 H       1  LIG   0.0733   0.1000 
@<TRIPOS>BOND
1     2     1     ar
2     3     2     1
3     4     2     ar
4     5     4     1
5     6     4     ar
6     7     6     ar
7     8     7     1
8     9     8     1
9     10    8     1
10    11    10    1
11    12    11    ar
12    13    12    1
13    14    12    ar
14    15    14    1
15    16    14    ar
16    17    16    1
17    18    16    ar
18    19    11    ar
19    19    18    ar
20    20    19    1
21    21    1     ar
22    21    7     ar
23    21    20    1
24    22    6     1
25    23    22    1
26    24    22    1
27    25    22    1
28    26    10    2
29    27    20    1
30    28    27    1
31    29    27    1
32    30    29    1
33    31    29    1
34    32    27    1
35    32    29    1
36    33    32    1
37    34    32    1
@<TRIPOS>SUBSTRUCTURE
1   LIG    1    
 
########## Name        : 1VRT.lig
########## Description : AM1BCC_CHARGES =  -0.0002 ORIGINAL_CHARGES =  -0.0000

@<TRIPOS>MOLECULE
1VRT.lig
34    37    1     0     0    
SMALL
USER_CHARGES
@<TRIPOS>ATOM
1     N1       4.0540  -36.9310   22.2210 N.ar    1  LIG  -0.6650  -0.6200 
2     C1       4.9660  -36.2380   22.9390 C.ar    1  LIG   0.3947   0.1600 
3     H1       6.0082  -36.2811   22.6707 H       1  LIG   0.0281   0.1500 
4     C2       4.6240  -35.4500   24.0360 C.ar    1  LIG  -0.2334  -0.1500 
5     H2       5.3884  -34.9151   24.5740 H       1  LIG   0.1480   0.1500 
6     C3       3.3050  -35.3690   24.4150 C.ar    1  LIG  -0.0698  -0.1435 
7     C4       2.3460  -36.0770   23.6860 C.ar    1  LIG  -0.0398   0.1170 
8     N2       0.9890  -36.0280   24.1030 N.am    1  LIG  -0.4596  -0.5470 
9     H3       0.7643  -35.9928   25.0860 H       1  LIG   0.3311   0.3700 
10    C5      -0.1450  -36.0180   23.4080 C.2     1  LIG   0.7361   0.5438 
11    C6      -0.1190  -36.0770   21.8860 C.ar    1  LIG  -0.2550   0.0862 
12    C7      -1.1230  -35.3990   21.1890 C.ar    1  LIG  -0.0321  -0.1500 
13    H4      -1.7552  -34.6955   21.7041 H       1  LIG   0.1623   0.1500 
14    C8      -1.2960  -35.6300   19.8690 C.ar    1  LIG  -0.2723  -0.1500 
15    H5      -2.0662  -35.1073   19.3273 H       1  LIG   0.1522   0.1500 
16    C9      -0.4670  -36.5450   19.2400 C.ar    1  LIG   0.4373   0.1600 
17    H6      -0.5947  -36.7554   18.1915 H       1  LIG   0.0280   0.1500 
18    N3       0.5220  -37.2120   19.8740 N.ar    1  LIG  -0.6893  -0.6200 
19    C10      0.7040  -36.9790   21.1800 C.ar    1  LIG   0.6480   0.4100 
20    N4       1.7670  -37.6730   21.8260 N.pl3   1  LIG  -0.6924  -0.3690 
21    C11      2.7540  -36.8570   22.5840 C.ar    1  LIG   0.5805   0.4100 
22    C12      2.9040  -34.5090   25.6010 C.3     1  LIG  -0.0620   0.1435 
23    H7       2.2235  -33.7630   25.2820 H       1  LIG   0.0570   0.0000 
24    H8       2.4436  -35.1154   26.3371 H       1  LIG   0.0495   0.0000 
25    H9       3.7654  -34.0491   26.0108 H       1  LIG   0.0519   0.0000 
26    O1      -1.2400  -35.9060   23.9770 O.2     1  LIG  -0.6361  -0.5700 
27    C13      2.3440  -38.7570   21.0360 C.3     1  LIG   0.1354   0.0690 
28    H10      3.1238  -38.3754   20.4296 H       1  LIG   0.0981   0.1000 
29    C14      2.9380  -39.8900   21.8010 C.3     1  LIG  -0.1181  -0.2000 
30    H11      3.8890  -40.1268   21.3997 H       1  LIG   0.0732   0.1000 
31    H12      3.0430  -39.6129   22.8177 H       1  LIG   0.0789   0.1000 
32    C15      1.6390  -40.0610   21.0880 C.3     1  LIG  -0.1196  -0.2000 
33    H13      0.6832  -39.9283   21.5242 H       1  LIG   0.0807   0.1000 
34    H14      1.5292  -40.4423   20.1061 H       1  LIG   0.0733   0.1000 
@<TRIPOS>BOND
1     2     1     ar
2     3     2     1
3     4     2     ar
4     5     4     1
5     6     4     ar
6     7     6     ar
7     8     7     1
8     9     8     1
9     10    8     1
10    11    10    1
11    12    11    ar
12    13    12    1
13    14    12    ar
14    15    14    1
15    16    14    ar
16    17    16    1
17    18    16    ar
18    19    11    ar
19    19    18    ar
20    20    19    1
21    21    1     ar
22    21    7     ar
23    21    20    1
24    22    6     1
25    23    22    1
26    24    22    1
27    25    22    1
28    26    10    2
29    27    20    1
30    28    27    1
31    29    27    1
32    30    29    1
33    31    29    1
34    32    27    1
35    32    29    1
36    33    32    1
37    34    32    1
@<TRIPOS>SUBSTRUCTURE
1   LIG    1    
 
########## Name        : 1VRT.lig
########## Description : AM1BCC_CHARGES =  -0.0002 ORIGINAL_CHARGES =  -0.0000

@<TRIPOS>MOLECULE
1VRT.lig
34    37    1     0     0    
SMALL
USER_CHARGES
@<TRIPOS>ATOM
1     N1       4.0540  -36.9310   22.2210 N.ar    1  LIG  -0.6650  -0.6200 
2     C1       4.9660  -36.2380   22.9390 C.ar    1  LIG   0.3947   0.1600 
3     H1       6.0082  -36.2811   22.6707 H       1  LIG   0.0281   0.1500 
4     C2       4.6240  -35.4500   24.0360 C.ar    1  LIG  -0.2334  -0.1500 
5     H2       5.3884  -34.9151   24.5740 H       1  LIG   0.1480   0.1500 
6     C3       3.3050  -35.3690   24.4150 C.ar    1  LIG  -0.0698  -0.1435 
7     C4       2.3460  -36.0770   23.6860 C.ar    1  LIG  -0.0398   0.1170 
8     N2       0.9890  -36.0280   24.1030 N.am    1  LIG  -0.4596  -0.5470 
9     H3       0.7643  -35.9928   25.0860 H       1  LIG   0.3311   0.3700 
10    C5      -0.1450  -36.0180   23.4080 C.2     1  LIG   0.7361   0.5438 
11    C6      -0.1190  -36.0770   21.8860 C.ar    1  LIG  -0.2550   0.0862 
12    C7      -1.1230  -35.3990   21.1890 C.ar    1  LIG  -0.0321  -0.1500 
13    H4      -1.7552  -34.6955   21.7041 H       1  LIG   0.1623   0.1500 
14    C8      -1.2960  -35.6300   19.8690 C.ar    1  LIG  -0.2723  -0.1500 
15    H5      -2.0662  -35.1073   19.3273 H       1  LIG   0.1522   0.1500 
16    C9      -0.4670  -36.5450   19.2400 C.ar    1  LIG   0.4373   0.1600 
17    H6      -0.5947  -36.7554   18.1915 H       1  LIG   0.0280   0.1500 
18    N3       0.5220  -37.2120   19.8740 N.ar    1  LIG  -0.6893  -0.6200 
19    C10      0.7040  -36.9790   21.1800 C.ar    1  LIG   0.6480   0.4100 
20    N4       1.7670  -37.6730   21.8260 N.pl3   1  LIG  -0.6924  -0.3690 
21    C11      2.7540  -36.8570   22.5840 C.ar    1  LIG   0.5805   0.4100 
22    C12      2.9040  -34.5090   25.6010 C.3     1  LIG  -0.0620   0.1435 
23    H7       2.2235  -33.7630   25.2820 H       1  LIG   0.0570   0.0000 
24    H8       2.4436  -35.1154   26.3371 H       1  LIG   0.0495   0.0000 
25    H9       3.7654  -34.0491   26.0108 H       1  LIG   0.0519   0.0000 
26    O1      -1.2400  -35.9060   23.9770 O.2     1  LIG  -0.6361  -0.5700 
27    C13      2.3440  -38.7570   21.0360 C.3     1  LIG   0.1354   0.0690 
28    H10      3.1238  -38.3754   20.4296 H       1  LIG   0.0981   0.1000 
29    C14      2.9380  -39.8900   21.8010 C.3     1  LIG  -0.1181  -0.2000 
30    H11      3.8890  -40.1268   21.3997 H       1  LIG   0.0732   0.1000 
31    H12      3.0430  -39.6129   22.8177 H       1  LIG   0.0789   0.1000 
32    C15      1.6390  -40.0610   21.0880 C.3     1  LIG  -0.1196  -0.2000 
33    H13      0.6832  -39.9283   21.5242 H       1  LIG   0.0807   0.1000 
34    H14      1.5292  -40.4423   20.1061 H       1  LIG   0.0733   0.1000 
@<TRIPOS>BOND
1     2     1     ar
2     3     2     1
3     4     2     ar
4     5     4     1
5     6     4     ar
6     7     6     ar
7     8     7     1
8     9     8     1
9     10    8     1
10    11    10    1
11    12    11    ar
12    13    12    1
13    14    12    ar
14    15    14    1
15    16    14    ar
16    17    16    1
17    18    16    ar
18    19    11    ar
19    19    18    ar
20    20    19    1
21    21    1     ar
22    21    7     ar
23    21    20    1
24    22    6     1
25    23    22    1
26    24    22    1
27    25    22    1
28    26    10    2
29    27    20    1
30    28    27    1
31    29    27    1
32    30    29    1
33    31    29    1
34    32    27    1
35    32    29    1
36    33    32    1
37    34    32    1
@<TRIPOS>SUBSTRUCTURE
1   LIG    1    
 
########## Name        : 1VRT.lig
########## Description : AM1BCC_CHARGES =  -0.0002 ORIGINAL_CHARGES =  -0.0000

@<TRIPOS>MOLECULE
1VRT.lig
34    37    1     0     0    
SMALL
USER_CHARGES
@<TRIPOS>ATOM
1     N1       4.0540  -36.9310   22.2210 N.ar    1  LIG  -0.6650  -0.6200 
2     C1       4.9660  -36.2380   22.9390 C.ar    1  LIG   0.3947   0.1600 
3     H1       6.0082  -36.2811   22.6707 H       1  LIG   0.0281   0.1500 
4     C2       4.6240  -35.4500   24.0360 C.ar    1  LIG  -0.2334  -0.1500 
5     H2       5.3884  -34.9151   24.5740 H       1  LIG   0.1480   0.1500 
6     C3       3.3050  -35.3690   24.4150 C.ar    1  LIG  -0.0698  -0.1435 
7     C4       2.3460  -36.0770   23.6860 C.ar    1  LIG  -0.0398   0.1170 
8     N2       0.9890  -36.0280   24.1030 N.am    1  LIG  -0.4596  -0.5470 
9     H3       0.7643  -35.9928   25.0860 H       1  LIG   0.3311   0.3700 
10    C5      -0.1450  -36.0180   23.4080 C.2     1  LIG   0.7361   0.5438 
11    C6      -0.1190  -36.0770   21.8860 C.ar    1  LIG  -0.2550   0.0862 
12    C7      -1.1230  -35.3990   21.1890 C.ar    1  LIG  -0.0321  -0.1500 
13    H4      -1.7552  -34.6955   21.7041 H       1  LIG   0.1623   0.1500 
14    C8      -1.2960  -35.6300   19.8690 C.ar    1  LIG  -0.2723  -0.1500 
15    H5      -2.0662  -35.1073   19.3273 H       1  LIG   0.1522   0.1500 
16    C9      -0.4670  -36.5450   19.2400 C.ar    1  LIG   0.4373   0.1600 
17    H6      -0.5947  -36.7554   18.1915 H       1  LIG   0.0280   0.1500 
18    N3       0.5220  -37.2120   19.8740 N.ar    1  LIG  -0.6893  -0.6200 
19    C10      0.7040  -36.9790   21.1800 C.ar    1  LIG   0.6480   0.4100 
20    N4       1.7670  -37.6730   21.8260 N.pl3   1  LIG  -0.6924  -0.3690 
21    C11      2.7540  -36.8570   22.5840 C.ar    1  LIG   0.5805   0.4100 
22    C12      2.9040  -34.5090   25.6010 C.3     1  LIG  -0.0620   0.1435 
23    H7       2.2235  -33.7630   25.2820 H       1  LIG   0.0570   0.0000 
24    H8       2.4436  -35.1154   26.3371 H       1  LIG   0.0495   0.0000 
25    H9       3.7654  -34.0491   26.0108 H       1  LIG   0.0519   0.0000 
26    O1      -1.2400  -35.9060   23.9770 O.2     1  LIG  -0.6361  -0.5700 
27    C13      2.3440  -38.7570   21.0360 C.3     1  LIG   0.1354   0.0690 
28    H10      3.1238  -38.3754   20.4296 H       1  LIG   0.0981   0.1000 
29    C14      2.9380  -39.8900   21.8010 C.3     1  LIG  -0.1181  -0.2000 
30    H11      3.8890  -40.1268   21.3997 H       1  LIG   0.0732   0.1000 
31    H12      3.0430  -39.6129   22.8177 H       1  LIG   0.0789   0.1000 
32    C15      1.6390  -40.0610   21.0880 C.3     1  LIG  -0.1196  -0.2000 
33    H13      0.6832  -39.9283   21.5242 H       1  LIG   0.0807   0.1000 
34    H14      1.5292  -40.4423   20.1061 H       1  LIG   0.0733   0.1000 
@<TRIPOS>BOND
1     2     1     ar
2     3     2     1
3     4     2     ar
4     5     4     1
5     6     4     ar
6     7     6     ar
7     8     7     1
8     9     8     1
9     10    8     1
10    11    10    1
11    12    11    ar
12    13    12    1
13    14    12    ar
14    15    14    1
15    16    14    ar
16    17    16    1
17    18    16    ar
18    19    11    ar
19    19    18    ar
20    20    19    1
21    21    1     ar
22    21    7     ar
23    21    20    1
24    22    6     1
25    23    22    1
26    24    22    1
27    25    22    1
28    26    10    2
29    27    20    1
30    28    27    1
31    29    27    1
32    30    29    1
33    31    29    1
34    32    27    1
35    32    29    1
36    33    32    1
37    34    32    1
@<TRIPOS>SUBSTRUCTURE
1   LIG    1    
 
########## Name        : 1VRT.lig
########## Description : AM1BCC_CHARGES =  -0.0002 ORIGINAL_CHARGES =  -0.0000

@<TRIPOS>MOLECULE
1VRT.lig
34    37    1     0     0    
SMALL
USER_CHARGES
@<TRIPOS>ATOM
1     N1       4.0540  -36.9310   22.2210 N.ar    1  LIG  -0.6650  -0.6200 
2     C1       4.9660  -36.2380   22.9390 C.ar    1  LIG   0.3947   0.1600 
3     H1       6.0082  -36.2811   22.6707 H       1  LIG   0.0281   0.1500 
4     C2       4.6240  -35.4500   24.0360 C.ar    1  LIG  -0.2334  -0.1500 
5     H2       5.3884  -34.9151   24.5740 H       1  LIG   0.1480   0.1500 
6     C3       3.3050  -35.3690   24.4150 C.ar    1  LIG  -0.0698  -0.1435 
7     C4       2.3460  -36.0770   23.6860 C.ar    1  LIG  -0.0398   0.1170 
8     N2       0.9890  -36.0280   24.1030 N.am    1  LIG  -0.4596  -0.5470 
9     H3       0.7643  -35.9928   25.0860 H       1  LIG   0.3311   0.3700 
10    C5      -0.1450  -36.0180   23.4080 C.2     1  LIG   0.7361   0.5438 
11    C6      -0.1190  -36.0770   21.8860 C.ar    1  LIG  -0.2550   0.0862 
12    C7      -1.1230  -35.3990   21.1890 C.ar    1  LIG  -0.0321  -0.1500 
13    H4      -1.7552  -34.6955   21.7041 H       1  LIG   0.1623   0.1500 
14    C8      -1.2960  -35.6300   19.8690 C.ar    1  LIG  -0.2723  -0.1500 
15    H5      -2.0662  -35.1073   19.3273 H       1  LIG   0.1522   0.1500 
16    C9      -0.4670  -36.5450   19.2400 C.ar    1  LIG   0.4373   0.1600 
17    H6      -0.5947  -36.7554   18.1915 H       1  LIG   0.0280   0.1500 
18    N3       0.5220  -37.2120   19.8740 N.ar    1  LIG  -0.6893  -0.6200 
19    C10      0.7040  -36.9790   21.1800 C.ar    1  LIG   0.6480   0.4100 
20    N4       1.7670  -37.6730   21.8260 N.pl3   1  LIG  -0.6924  -0.3690 
21    C11      2.7540  -36.8570   22.5840 C.ar    1  LIG   0.5805   0.4100 
22    C12      2.9040  -34.5090   25.6010 C.3     1  LIG  -0.0620   0.1435 
23    H7       2.2235  -33.7630   25.2820 H       1  LIG   0.0570   0.0000 
24    H8       2.4436  -35.1154   26.3371 H       1  LIG   0.0495   0.0000 
25    H9       3.7654  -34.0491   26.0108 H       1  LIG   0.0519   0.0000 
26    O1      -1.2400  -35.9060   23.9770 O.2     1  LIG  -0.6361  -0.5700 
27    C13      2.3440  -38.7570   21.0360 C.3     1  LIG   0.1354   0.0690 
28    H10      3.1238  -38.3754   20.4296 H       1  LIG   0.0981   0.1000 
29    C14      2.9380  -39.8900   21.8010 C.3     1  LIG  -0.1181  -0.2000 
30    H11      3.8890  -40.1268   21.3997 H       1  LIG   0.0732   0.1000 
31    H12      3.0430  -39.6129   22.8177 H       1  LIG   0.0789   0.1000 
32    C15      1.6390  -40.0610   21.0880 C.3     1  LIG  -0.1196  -0.2000 
33    H13      0.6832  -39.9283   21.5242 H       1  LIG   0.0807   0.1000 
34    H14      1.5292  -40.4423   20.1061 H       1  LIG   0.0733   0.1000 
@<TRIPOS>BOND
1     2     1     ar
2     3     2     1
3     4     2     ar
4     5     4     1
5     6     4     ar
6     7     6     ar
7     8     7     1
8     9     8     1
9     10    8     1
10    11    10    1
11    12    11    ar
12    13    12    1
13    14    12    ar
14    15    14    1
15    16    14    ar
16    17    16    1
17    18    16    ar
18    19    11    ar
19    19    18    ar
20    20    19    1
21    21    1     ar
22    21    7     ar
23    21    20    1
24    22    6     1
25    23    22    1
26    24    22    1
27    25    22    1
28    26    10    2
29    27    20    1
30    28    27    1
31    29    27    1
32    30    29    1
33    31    29    1
34    32    27    1
35    32    29    1
36    33    32    1
37    34    32    1
@<TRIPOS>SUBSTRUCTURE
1   LIG    1    
 
########## Name        : 1VRT.lig
########## Description : AM1BCC_CHARGES =  -0.0002 ORIGINAL_CHARGES =  -0.0000

@<TRIPOS>MOLECULE
1VRT.lig
34    37    1     0     0    
SMALL
USER_CHARGES
@<TRIPOS>ATOM
1     N1       4.0540  -36.9310   22.2210 N.ar    1  LIG  -0.6650  -0.6200 
2     C1       4.9660  -36.2380   22.9390 C.ar    1  LIG   0.3947   0.1600 
3     H1       6.0082  -36.2811   22.6707 H       1  LIG   0.0281   0.1500 
4     C2       4.6240  -35.4500   24.0360 C.ar    1  LIG  -0.2334  -0.1500 
5     H2       5.3884  -34.9151   24.5740 H       1  LIG   0.1480   0.1500 
6     C3       3.3050  -35.3690   24.4150 C.ar    1  LIG  -0.0698  -0.1435 
7     C4       2.3460  -36.0770   23.6860 C.ar    1  LIG  -0.0398   0.1170 
8     N2       0.9890  -36.0280   24.1030 N.am    1  LIG  -0.4596  -0.5470 
9     H3       0.7643  -35.9928   25.0860 H       1  LIG   0.3311   0.3700 
10    C5      -0.1450  -36.0180   23.4080 C.2     1  LIG   0.7361   0.5438 
11    C6      -0.1190  -36.0770   21.8860 C.ar    1  LIG  -0.2550   0.0862 
12    C7      -1.1230  -35.3990   21.1890 C.ar    1  LIG  -0.0321  -0.1500 
13    H4      -1.7552  -34.6955   21.7041 H       1  LIG   0.1623   0.1500 
14    C8      -1.2960  -35.6300   19.8690 C.ar    1  LIG  -0.2723  -0.1500 
15    H5      -2.0662  -35.1073   19.3273 H       1  LIG   0.1522   0.1500 
16    C9      -0.4670  -36.5450   19.2400 C.ar    1  LIG   0.4373   0.1600 
17    H6      -0.5947  -36.7554   18.1915 H       1  LIG   0.0280   0.1500 
18    N3       0.5220  -37.2120   19.8740 N.ar    1  LIG  -0.6893  -0.6200 
19    C10      0.7040  -36.9790   21.1800 C.ar    1  LIG   0.6480   0.4100 
20    N4       1.7670  -37.6730   21.8260 N.pl3   1  LIG  -0.6924  -0.3690 
21    C11      2.7540  -36.8570   22.5840 C.ar    1  LIG   0.5805   0.4100 
22    C12      2.9040  -34.5090   25.6010 C.3     1  LIG  -0.0620   0.1435 
23    H7       2.2235  -33.7630   25.2820 H       1  LIG   0.0570   0.0000 
24    H8       2.4436  -35.1154   26.3371 H       1  LIG   0.0495   0.0000 
25    H9       3.7654  -34.0491   26.0108 H       1  LIG   0.0519   0.0000 
26    O1      -1.2400  -35.9060   23.9770 O.2     1  LIG  -0.6361  -0.5700 
27    C13      2.3440  -38.7570   21.0360 C.3     1  LIG   0.1354   0.0690 
28    H10      3.1238  -38.3754   20.4296 H       1  LIG   0.0981   0.1000 
29    C14      2.9380  -39.8900   21.8010 C.3     1  LIG  -0.1181  -0.2000 
30    H11      3.8890  -40.1268   21.3997 H       1  LIG   0.0732   0.1000 
31    H12      3.0430  -39.6129   22.8177 H       1  LIG   0.0789   0.1000 
32    C15      1.6390  -40.0610   21.0880 C.3     1  LIG  -0.1196  -0.2000 
33    H13      0.6832  -39.9283   21.5242 H       1  LIG   0.0807   0.1000 
34    H14      1.5292  -40.4423   20.1061 H       1  LIG   0.0733   0.1000 
@<TRIPOS>BOND
1     2     1     ar
2     3     2     1
3     4     2     ar
4     5     4     1
5     6     4     ar
6     7     6     ar
7     8     7     1
8     9     8     1
9     10    8     1
10    11    10    1
11    12    11    ar
12    13    12    1
13    14    12    ar
14    15    14    1
15    16    14    ar
16    17    16    1
17    18    16    ar
18    19    11    ar
19    19    18    ar
20    20    19    1
21    21    1     ar
22    21    7     ar
23    21    20    1
24    22    6     1
25    23    22    1
26    24    22    1
27    25    22    1
28    26    10    2
29    27    20    1
30    28    27    1
31    29    27    1
32    30    29    1
33    31    29    1
34    32    27    1
35    32    29    1
36    33    32    1
37    34    32    1
@<TRIPOS>SUBSTRUCTURE
1   LIG    1    
 
########## Name        : 1VRT.lig
########## Description : AM1BCC_CHARGES =  -0.0002 ORIGINAL_CHARGES =  -0.0000

@<TRIPOS>MOLECULE
1VRT.lig
34    37    1     0     0    
SMALL
USER_CHARGES
@<TRIPOS>ATOM
1     N1       4.0540  -36.9310   22.2210 N.ar    1  LIG  -0.6650  -0.6200 
2     C1       4.9660  -36.2380   22.9390 C.ar    1  LIG   0.3947   0.1600 
3     H1       6.0082  -36.2811   22.6707 H       1  LIG   0.0281   0.1500 
4     C2       4.6240  -35.4500   24.0360 C.ar    1  LIG  -0.2334  -0.1500 
5     H2       5.3884  -34.9151   24.5740 H       1  LIG   0.1480   0.1500 
6     C3       3.3050  -35.3690   24.4150 C.ar    1  LIG  -0.0698  -0.1435 
7     C4       2.3460  -36.0770   23.6860 C.ar    1  LIG  -0.0398   0.1170 
8     N2       0.9890  -36.0280   24.1030 N.am    1  LIG  -0.4596  -0.5470 
9     H3       0.7643  -35.9928   25.0860 H       1  LIG   0.3311   0.3700 
10    C5      -0.1450  -36.0180   23.4080 C.2     1  LIG   0.7361   0.5438 
11    C6      -0.1190  -36.0770   21.8860 C.ar    1  LIG  -0.2550   0.0862 
12    C7      -1.1230  -35.3990   21.1890 C.ar    1  LIG  -0.0321  -0.1500 
13    H4      -1.7552  -34.6955   21.7041 H       1  LIG   0.1623   0.1500 
14    C8      -1.2960  -35.6300   19.8690 C.ar    1  LIG  -0.2723  -0.1500 
15    H5      -2.0662  -35.1073   19.3273 H       1  LIG   0.1522   0.1500 
16    C9      -0.4670  -36.5450   19.2400 C.ar    1  LIG   0.4373   0.1600 
17    H6      -0.5947  -36.7554   18.1915 H       1  LIG   0.0280   0.1500 
18    N3       0.5220  -37.2120   19.8740 N.ar    1  LIG  -0.6893  -0.6200 
19    C10      0.7040  -36.9790   21.1800 C.ar    1  LIG   0.6480   0.4100 
20    N4       1.7670  -37.6730   21.8260 N.pl3   1  LIG  -0.6924  -0.3690 
21    C11      2.7540  -36.8570   22.5840 C.ar    1  LIG   0.5805   0.4100 
22    C12      2.9040  -34.5090   25.6010 C.3     1  LIG  -0.0620   0.1435 
23    H7       2.2235  -33.7630   25.2820 H       1  LIG   0.0570   0.0000 
24    H8       2.4436  -35.1154   26.3371 H       1  LIG   0.0495   0.0000 
25    H9       3.7654  -34.0491   26.0108 H       1  LIG   0.0519   0.0000 
26    O1      -1.2400  -35.9060   23.9770 O.2     1  LIG  -0.6361  -0.5700 
27    C13      2.3440  -38.7570   21.0360 C.3     1  LIG   0.1354   0.0690 
28    H10      3.1238  -38.3754   20.4296 H       1  LIG   0.0981   0.1000 
29    C14      2.9380  -39.8900   21.8010 C.3     1  LIG  -0.1181  -0.2000 
30    H11      3.8890  -40.1268   21.3997 H       1  LIG   0.0732   0.1000 
31    H12      3.0430  -39.6129   22.8177 H       1  LIG   0.0789   0.1000 
32    C15      1.6390  -40.0610   21.0880 C.3     1  LIG  -0.1196  -0.2000 
33    H13      0.6832  -39.9283   21.5242 H       1  LIG   0.0807   0.1000 
34    H14      1.5292  -40.4423   20.1061 H       1  LIG   0.0733   0.1000 
@<TRIPOS>BOND
1     2     1     ar
2     3     2     1
3     4     2     ar
4     5     4     1
5     6     4     ar
6     7     6     ar
7     8     7     1
8     9     8     1
9     10    8     1
10    11    10    1
11    12    11    ar
12    13    12    1
13    14    12    ar
14    15    14    1
15    16    14    ar
16    17    16    1
17    18    16    ar
18    19    11    ar
19    19    18    ar
20    20    19    1
21    21    1     ar
22    21    7     ar
23    21    20    1
24    22    6     1
25    23    22    1
26    24    22    1
27    25    22    1
28    26    10    2
29    27    20    1
30    28    27    1
31    29    27    1
32    30    29    1
33    31    29    1
34    32    27    1
35    32    29    1
36    33    32    1
37    34    32    1
@<TRIPOS>SUBSTRUCTURE
1   LIG    1    
 
########## Name        : 1VRT.lig
########## Description : AM1BCC_CHARGES =  -0.0002 ORIGINAL_CHARGES =  -0.0000

@<TRIPOS>MOLECULE
1VRT.lig
34    37    1     0     0    
SMALL
USER_CHARGES
@<TRIPOS>ATOM
1     N1       4.0540  -36.9310   22.2210 N.ar    1  LIG  -0.6650  -0.6200 
2     C1       4.9660  -36.2380   22.9390 C.ar    1  LIG   0.3947   0.1600 
3     H1       6.0082  -36.2811   22.6707 H       1  LIG   0.0281   0.1500 
4     C2       4.6240  -35.4500   24.0360 C.ar    1  LIG  -0.2334  -0.1500 
5     H2       5.3884  -34.9151   24.5740 H       1  LIG   0.1480   0.1500 
6     C3       3.3050  -35.3690   24.4150 C.ar    1  LIG  -0.0698  -0.1435 
7     C4       2.3460  -36.0770   23.6860 C.ar    1  LIG  -0.0398   0.1170 
8     N2       0.9890  -36.0280   24.1030 N.am    1  LIG  -0.4596  -0.5470 
9     H3       0.7643  -35.9928   25.0860 H       1  LIG   0.3311   0.3700 
10    C5      -0.1450  -36.0180   23.4080 C.2     1  LIG   0.7361   0.5438 
11    C6      -0.1190  -36.0770   21.8860 C.ar    1  LIG  -0.2550   0.0862 
12    C7      -1.1230  -35.3990   21.1890 C.ar    1  LIG  -0.0321  -0.1500 
13    H4      -1.7552  -34.6955   21.7041 H       1  LIG   0.1623   0.1500 
14    C8      -1.2960  -35.6300   19.8690 C.ar    1  LIG  -0.2723  -0.1500 
15    H5      -2.0662  -35.1073   19.3273 H       1  LIG   0.1522   0.1500 
16    C9      -0.4670  -36.5450   19.2400 C.ar    1  LIG   0.4373   0.1600 
17    H6      -0.5947  -36.7554   18.1915 H       1  LIG   0.0280   0.1500 
18    N3       0.5220  -37.2120   19.8740 N.ar    1  LIG  -0.6893  -0.6200 
19    C10      0.7040  -36.9790   21.1800 C.ar    1  LIG   0.6480   0.4100 
20    N4       1.7670  -37.6730   21.8260 N.pl3   1  LIG  -0.6924  -0.3690 
21    C11      2.7540  -36.8570   22.5840 C.ar    1  LIG   0.5805   0.4100 
22    C12      2.9040  -34.5090   25.6010 C.3     1  LIG  -0.0620   0.1435 
23    H7       2.2235  -33.7630   25.2820 H       1  LIG   0.0570   0.0000 
24    H8       2.4436  -35.1154   26.3371 H       1  LIG   0.0495   0.0000 
25    H9       3.7654  -34.0491   26.0108 H       1  LIG   0.0519   0.0000 
26    O1      -1.2400  -35.9060   23.9770 O.2     1  LIG  -0.6361  -0.5700 
27    C13      2.3440  -38.7570   21.0360 C.3     1  LIG   0.1354   0.0690 
28    H10      3.1238  -38.3754   20.4296 H       1  LIG   0.0981   0.1000 
29    C14      2.9380  -39.8900   21.8010 C.3     1  LIG  -0.1181  -0.2000 
30    H11      3.8890  -40.1268   21.3997 H       1  LIG   0.0732   0.1000 
31    H12      3.0430  -39.6129   22.8177 H       1  LIG   0.0789   0.1000 
32    C15      1.6390  -40.0610   21.0880 C.3     1  LIG  -0.1196  -0.2000 
33    H13      0.6832  -39.9283   21.5242 H       1  LIG   0.0807   0.1000 
34    H14      1.5292  -40.4423   20.1061 H       1  LIG   0.0733   0.1000 
@<TRIPOS>BOND
1     2     1     ar
2     3     2     1
3     4     2     ar
4     5     4     1
5     6     4     ar
6     7     6     ar
7     8     7     1
8     9     8     1
9     10    8     1
10    11    10    1
11    12    11    ar
12    13    12    1
13    14    12    ar
14    15    14    1
15    16    14    ar
16    17    16    1
17    18    16    ar
18    19    11    ar
19    19    18    ar
20    20    19    1
21    21    1     ar
22    21    7     ar
23    21    20    1
24    22    6     1
25    23    22    1
26    24    22    1
27    25    22    1
28    26    10    2
29    27    20    1
30    28    27    1
31    29    27    1
32    30    29    1
33    31    29    1
34    32    27    1
35    32    29    1
36    33    32    1
37    34    32    1
@<TRIPOS>SUBSTRUCTURE
1   LIG    1    
 
########## Name        : 1VRT.lig
########## Description : AM1BCC_CHARGES =  -0.0002 ORIGINAL_CHARGES =  -0.0000

@<TRIPOS>MOLECULE
1VRT.lig
34    37    1     0     0    
SMALL
USER_CHARGES
@<TRIPOS>ATOM
1     N1       4.0540  -36.9310   22.2210 N.ar    1  LIG  -0.6650  -0.6200 
2     C1       4.9660  -36.2380   22.9390 C.ar    1  LIG   0.3947   0.1600 
3     H1       6.0082  -36.2811   22.6707 H       1  LIG   0.0281   0.1500 
4     C2       4.6240  -35.4500   24.0360 C.ar    1  LIG  -0.2334  -0.1500 
5     H2       5.3884  -34.9151   24.5740 H       1  LIG   0.1480   0.1500 
6     C3       3.3050  -35.3690   24.4150 C.ar    1  LIG  -0.0698  -0.1435 
7     C4       2.3460  -36.0770   23.6860 C.ar    1  LIG  -0.0398   0.1170 
8     N2       0.9890  -36.0280   24.1030 N.am    1  LIG  -0.4596  -0.5470 
9     H3       0.7643  -35.9928   25.0860 H       1  LIG   0.3311   0.3700 
10    C5      -0.1450  -36.0180   23.4080 C.2     1  LIG   0.7361   0.5438 
11    C6      -0.1190  -36.0770   21.8860 C.ar    1  LIG  -0.2550   0.0862 
12    C7      -1.1230  -35.3990   21.1890 C.ar    1  LIG  -0.0321  -0.1500 
13    H4      -1.7552  -34.6955   21.7041 H       1  LIG   0.1623   0.1500 
14    C8      -1.2960  -35.6300   19.8690 C.ar    1  LIG  -0.2723  -0.1500 
15    H5      -2.0662  -35.1073   19.3273 H       1  LIG   0.1522   0.1500 
16    C9      -0.4670  -36.5450   19.2400 C.ar    1  LIG   0.4373   0.1600 
17    H6      -0.5947  -36.7554   18.1915 H       1  LIG   0.0280   0.1500 
18    N3       0.5220  -37.2120   19.8740 N.ar    1  LIG  -0.6893  -0.6200 
19    C10      0.7040  -36.9790   21.1800 C.ar    1  LIG   0.6480   0.4100 
20    N4       1.7670  -37.6730   21.8260 N.pl3   1  LIG  -0.6924  -0.3690 
21    C11      2.7540  -36.8570   22.5840 C.ar    1  LIG   0.5805   0.4100 
22    C12      2.9040  -34.5090   25.6010 C.3     1  LIG  -0.0620   0.1435 
23    H7       2.2235  -33.7630   25.2820 H       1  LIG   0.0570   0.0000 
24    H8       2.4436  -35.1154   26.3371 H       1  LIG   0.0495   0.0000 
25    H9       3.7654  -34.0491   26.0108 H       1  LIG   0.0519   0.0000 
26    O1      -1.2400  -35.9060   23.9770 O.2     1  LIG  -0.6361  -0.5700 
27    C13      2.3440  -38.7570   21.0360 C.3     1  LIG   0.1354   0.0690 
28    H10      3.1238  -38.3754   20.4296 H       1  LIG   0.0981   0.1000 
29    C14      2.9380  -39.8900   21.8010 C.3     1  LIG  -0.1181  -0.2000 
30    H11      3.8890  -40.1268   21.3997 H       1  LIG   0.0732   0.1000 
31    H12      3.0430  -39.6129   22.8177 H       1  LIG   0.0789   0.1000 
32    C15      1.6390  -40.0610   21.0880 C.3     1  LIG  -0.1196  -0.2000 
33    H13      0.6832  -39.9283   21.5242 H       1  LIG   0.0807   0.1000 
34    H14      1.5292  -40.4423   20.1061 H       1  LIG   0.0733   0.1000 
@<TRIPOS>BOND
1     2     1     ar
2     3     2     1
3     4     2     ar
4     5     4     1
5     6     4     ar
6     7     6     ar
7     8     7     1
8     9     8     1
9     10    8     1
10    11    10    1
11    12    11    ar
12    13    12    1
13    14    12    ar
14    15    14    1
15    16    14    ar
16    17    16    1
17    18    16    ar
18    19    11    ar
19    19    18    ar
20    20    19    1
21    21    1     ar
22    21    7     ar
23    21    20    1
24    22    6     1
25    23    22    1
26    24    22    1
27    25    22    1
28    26    10    2
29    27    20    1
30    28    27    1
31    29    27    1
32    30    29    1
33    31    29    1
34    32    27    1
35    32    29    1
36    33    32    1
37    34    32    1
@<TRIPOS>SUBSTRUCTURE
1   LIG    1    
 
########## Name        : 1VRT.lig
########## Description : AM1BCC_CHARGES =  -0.0002 ORIGINAL_CHARGES =  -0.0000

@<TRIPOS>MOLECULE
1VRT.lig
34    37    1     0     0    
SMALL
USER_CHARGES
@<TRIPOS>ATOM
1     N1       4.0540  -36.9310   22.2210 N.ar    1  LIG  -0.6650  -0.6200 
2     C1       4.9660  -36.2380   22.9390 C.ar    1  LIG   0.3947   0.1600 
3     H1       6.0082  -36.2811   22.6707 H       1  LIG   0.0281   0.1500 
4     C2       4.6240  -35.4500   24.0360 C.ar    1  LIG  -0.2334  -0.1500 
5     H2       5.3884  -34.9151   24.5740 H       1  LIG   0.1480   0.1500 
6     C3       3.3050  -35.3690   24.4150 C.ar    1  LIG  -0.0698  -0.1435 
7     C4       2.3460  -36.0770   23.6860 C.ar    1  LIG  -0.0398   0.1170 
8     N2       0.9890  -36.0280   24.1030 N.am    1  LIG  -0.4596  -0.5470 
9     H3       0.7643  -35.9928   25.0860 H       1  LIG   0.3311   0.3700 
10    C5      -0.1450  -36.0180   23.4080 C.2     1  LIG   0.7361   0.5438 
11    C6      -0.1190  -36.0770   21.8860 C.ar    1  LIG  -0.2550   0.0862 
12    C7      -1.1230  -35.3990   21.1890 C.ar    1  LIG  -0.0321  -0.1500 
13    H4      -1.7552  -34.6955   21.7041 H       1  LIG   0.1623   0.1500 
14    C8      -1.2960  -35.6300   19.8690 C.ar    1  LIG  -0.2723  -0.1500 
15    H5      -2.0662  -35.1073   19.3273 H       1  LIG   0.1522   0.1500 
16    C9      -0.4670  -36.5450   19.2400 C.ar    1  LIG   0.4373   0.1600 
17    H6      -0.5947  -36.7554   18.1915 H       1  LIG   0.0280   0.1500 
18    N3       0.5220  -37.2120   19.8740 N.ar    1  LIG  -0.6893  -0.6200 
19    C10      0.7040  -36.9790   21.1800 C.ar    1  LIG   0.6480   0.4100 
20    N4       1.7670  -37.6730   21.8260 N.pl3   1  LIG  -0.6924  -0.3690 
21    C11      2.7540  -36.8570   22.5840 C.ar    1  LIG   0.5805   0.4100 
22    C12      2.9040  -34.5090   25.6010 C.3     1  LIG  -0.0620   0.1435 
23    H7       2.2235  -33.7630   25.2820 H       1  LIG   0.0570   0.0000 
24    H8       2.4436  -35.1154   26.3371 H       1  LIG   0.0495   0.0000 
25    H9       3.7654  -34.0491   26.0108 H       1  LIG   0.0519   0.0000 
26    O1      -1.2400  -35.9060   23.9770 O.2     1  LIG  -0.6361  -0.5700 
27    C13      2.3440  -38.7570   21.0360 C.3     1  LIG   0.1354   0.0690 
28    H10      3.1238  -38.3754   20.4296 H       1  LIG   0.0981   0.1000 
29    C14      2.9380  -39.8900   21.8010 C.3     1  LIG  -0.1181  -0.2000 
30    H11      3.8890  -40.1268   21.3997 H       1  LIG   0.0732   0.1000 
31    H12      3.0430  -39.6129   22.8177 H       1  LIG   0.0789   0.1000 
32    C15      1.6390  -40.0610   21.0880 C.3     1  LIG  -0.1196  -0.2000 
33    H13      0.6832  -39.9283   21.5242 H       1  LIG   0.0807   0.1000 
34    H14      1.5292  -40.4423   20.1061 H       1  LIG   0.0733   0.1000 
@<TRIPOS>BOND
1     2     1     ar
2     3     2     1
3     4     2     ar
4     5     4     1
5     6     4     ar
6     7     6     ar
7     8     7     1
8     9     8     1
9     10    8     1
10    11    10    1
11    12    11    ar
12    13    12    1
13    14    12    ar
14    15    14    1
15    16    14    ar
16    17    16    1
17    18    16    ar
18    19    11    ar
19    19    18    ar
20    20    19    1
21    21    1     ar
22    21    7     ar
23    21    20    1
24    22    6     1
25    23    22    1
26    24    22    1
27    25    22    1
28    26    10    2
29    27    20    1
30    28    27    1
31    29    27    1
32    30    29    1
33    31    29    1
34    32    27    1
35    32    29    1
36    33    32    1
37    34    32    1
@<TRIPOS>SUBSTRUCTURE
1   LIG    1    
 
########## Name        : 1VRT.lig
########## Description : AM1BCC_CHARGES =  -0.0002 ORIGINAL_CHARGES =  -0.0000

@<TRIPOS>MOLECULE
1VRT.lig
34    37    1     0     0    
SMALL
USER_CHARGES
@<TRIPOS>ATOM
1     N1       4.0540  -36.9310   22.2210 N.ar    1  LIG  -0.6650  -0.6200 
2     C1       4.9660  -36.2380   22.9390 C.ar    1  LIG   0.3947   0.1600 
3     H1       6.0082  -36.2811   22.6707 H       1  LIG   0.0281   0.1500 
4     C2       4.6240  -35.4500   24.0360 C.ar    1  LIG  -0.2334  -0.1500 
5     H2       5.3884  -34.9151   24.5740 H       1  LIG   0.1480   0.1500 
6     C3       3.3050  -35.3690   24.4150 C.ar    1  LIG  -0.0698  -0.1435 
7     C4       2.3460  -36.0770   23.6860 C.ar    1  LIG  -0.0398   0.1170 
8     N2       0.9890  -36.0280   24.1030 N.am    1  LIG  -0.4596  -0.5470 
9     H3       0.7643  -35.9928   25.0860 H       1  LIG   0.3311   0.3700 
10    C5      -0.1450  -36.0180   23.4080 C.2     1  LIG   0.7361   0.5438 
11    C6      -0.1190  -36.0770   21.8860 C.ar    1  LIG  -0.2550   0.0862 
12    C7      -1.1230  -35.3990   21.1890 C.ar    1  LIG  -0.0321  -0.1500 
13    H4      -1.7552  -34.6955   21.7041 H       1  LIG   0.1623   0.1500 
14    C8      -1.2960  -35.6300   19.8690 C.ar    1  LIG  -0.2723  -0.1500 
15    H5      -2.0662  -35.1073   19.3273 H       1  LIG   0.1522   0.1500 
16    C9      -0.4670  -36.5450   19.2400 C.ar    1  LIG   0.4373   0.1600 
17    H6      -0.5947  -36.7554   18.1915 H       1  LIG   0.0280   0.1500 
18    N3       0.5220  -37.2120   19.8740 N.ar    1  LIG  -0.6893  -0.6200 
19    C10      0.7040  -36.9790   21.1800 C.ar    1  LIG   0.6480   0.4100 
20    N4       1.7670  -37.6730   21.8260 N.pl3   1  LIG  -0.6924  -0.3690 
21    C11      2.7540  -36.8570   22.5840 C.ar    1  LIG   0.5805   0.4100 
22    C12      2.9040  -34.5090   25.6010 C.3     1  LIG  -0.0620   0.1435 
23    H7       2.2235  -33.7630   25.2820 H       1  LIG   0.0570   0.0000 
24    H8       2.4436  -35.1154   26.3371 H       1  LIG   0.0495   0.0000 
25    H9       3.7654  -34.0491   26.0108 H       1  LIG   0.0519   0.0000 
26    O1      -1.2400  -35.9060   23.9770 O.2     1  LIG  -0.6361  -0.5700 
27    C13      2.3440  -38.7570   21.0360 C.3     1  LIG   0.1354   0.0690 
28    H10      3.1238  -38.3754   20.4296 H       1  LIG   0.0981   0.1000 
29    C14      2.9380  -39.8900   21.8010 C.3     1  LIG  -0.1181  -0.2000 
30    H11      3.8890  -40.1268   21.3997 H       1  LIG   0.0732   0.1000 
31    H12      3.0430  -39.6129   22.8177 H       1  LIG   0.0789   0.1000 
32    C15      1.6390  -40.0610   21.0880 C.3     1  LIG  -0.1196  -0.2000 
33    H13      0.6832  -39.9283   21.5242 H       1  LIG   0.0807   0.1000 
34    H14      1.5292  -40.4423   20.1061 H       1  LIG   0.0733   0.1000 
@<TRIPOS>BOND
1     2     1     ar
2     3     2     1
3     4     2     ar
4     5     4     1
5     6     4     ar
6     7     6     ar
7     8     7     1
8     9     8     1
9     10    8     1
10    11    10    1
11    12    11    ar
12    13    12    1
13    14    12    ar
14    15    14    1
15    16    14    ar
16    17    16    1
17    18    16    ar
18    19    11    ar
19    19    18    ar
20    20    19    1
21    21    1     ar
22    21    7     ar
23    21    20    1
24    22    6     1
25    23    22    1
26    24    22    1
27    25    22    1
28    26    10    2
29    27    20    1
30    28    27    1
31    29    27    1
32    30    29    1
33    31    29    1
34    32    27    1
35    32    29    1
36    33    32    1
37    34    32    1
@<TRIPOS>SUBSTRUCTURE
1   LIG    1    
 
########## Name        : 1VRT.lig
########## Description : AM1BCC_CHARGES =  -0.0002 ORIGINAL_CHARGES =  -0.0000

@<TRIPOS>MOLECULE
1VRT.lig
34    37    1     0     0    
SMALL
USER_CHARGES
@<TRIPOS>ATOM
1     N1       4.0540  -36.9310   22.2210 N.ar    1  LIG  -0.6650  -0.6200 
2     C1       4.9660  -36.2380   22.9390 C.ar    1  LIG   0.3947   0.1600 
3     H1       6.0082  -36.2811   22.6707 H       1  LIG   0.0281   0.1500 
4     C2       4.6240  -35.4500   24.0360 C.ar    1  LIG  -0.2334  -0.1500 
5     H2       5.3884  -34.9151   24.5740 H       1  LIG   0.1480   0.1500 
6     C3       3.3050  -35.3690   24.4150 C.ar    1  LIG  -0.0698  -0.1435 
7     C4       2.3460  -36.0770   23.6860 C.ar    1  LIG  -0.0398   0.1170 
8     N2       0.9890  -36.0280   24.1030 N.am    1  LIG  -0.4596  -0.5470 
9     H3       0.7643  -35.9928   25.0860 H       1  LIG   0.3311   0.3700 
10    C5      -0.1450  -36.0180   23.4080 C.2     1  LIG   0.7361   0.5438 
11    C6      -0.1190  -36.0770   21.8860 C.ar    1  LIG  -0.2550   0.0862 
12    C7      -1.1230  -35.3990   21.1890 C.ar    1  LIG  -0.0321  -0.1500 
13    H4      -1.7552  -34.6955   21.7041 H       1  LIG   0.1623   0.1500 
14    C8      -1.2960  -35.6300   19.8690 C.ar    1  LIG  -0.2723  -0.1500 
15    H5      -2.0662  -35.1073   19.3273 H       1  LIG   0.1522   0.1500 
16    C9      -0.4670  -36.5450   19.2400 C.ar    1  LIG   0.4373   0.1600 
17    H6      -0.5947  -36.7554   18.1915 H       1  LIG   0.0280   0.1500 
18    N3       0.5220  -37.2120   19.8740 N.ar    1  LIG  -0.6893  -0.6200 
19    C10      0.7040  -36.9790   21.1800 C.ar    1  LIG   0.6480   0.4100 
20    N4       1.7670  -37.6730   21.8260 N.pl3   1  LIG  -0.6924  -0.3690 
21    C11      2.7540  -36.8570   22.5840 C.ar    1  LIG   0.5805   0.4100 
22    C12      2.9040  -34.5090   25.6010 C.3     1  LIG  -0.0620   0.1435 
23    H7       2.2235  -33.7630   25.2820 H       1  LIG   0.0570   0.0000 
24    H8       2.4436  -35.1154   26.3371 H       1  LIG   0.0495   0.0000 
25    H9       3.7654  -34.0491   26.0108 H       1  LIG   0.0519   0.0000 
26    O1      -1.2400  -35.9060   23.9770 O.2     1  LIG  -0.6361  -0.5700 
27    C13      2.3440  -38.7570   21.0360 C.3     1  LIG   0.1354   0.0690 
28    H10      3.1238  -38.3754   20.4296 H       1  LIG   0.0981   0.1000 
29    C14      2.9380  -39.8900   21.8010 C.3     1  LIG  -0.1181  -0.2000 
30    H11      3.8890  -40.1268   21.3997 H       1  LIG   0.0732   0.1000 
31    H12      3.0430  -39.6129   22.8177 H       1  LIG   0.0789   0.1000 
32    C15      1.6390  -40.0610   21.0880 C.3     1  LIG  -0.1196  -0.2000 
33    H13      0.6832  -39.9283   21.5242 H       1  LIG   0.0807   0.1000 
34    H14      1.5292  -40.4423   20.1061 H       1  LIG   0.0733   0.1000 
@<TRIPOS>BOND
1     2     1     ar
2     3     2     1
3     4     2     ar
4     5     4     1
5     6     4     ar
6     7     6     ar
7     8     7     1
8     9     8     1
9     10    8     1
10    11    10    1
11    12    11    ar
12    13    12    1
13    14    12    ar
14    15    14    1
15    16    14    ar
16    17    16    1
17    18    16    ar
18    19    11    ar
19    19    18    ar
20    20    19    1
21    21    1     ar
22    21    7     ar
23    21    20    1
24    22    6     1
25    23    22    1
26    24    22    1
27    25    22    1
28    26    10    2
29    27    20    1
30    28    27    1
31    29    27    1
32    30    29    1
33    31    29    1
34    32    27    1
35    32    29    1
36    33    32    1
37    34    32    1
@<TRIPOS>SUBSTRUCTURE
1   LIG    1    
 
########## Name        : 1VRT.lig
########## Description : AM1BCC_CHARGES =  -0.0002 ORIGINAL_CHARGES =  -0.0000

@<TRIPOS>MOLECULE
1VRT.lig
34    37    1     0     0    
SMALL
USER_CHARGES
@<TRIPOS>ATOM
1     N1       4.0540  -36.9310   22.2210 N.ar    1  LIG  -0.6650  -0.6200 
2     C1       4.9660  -36.2380   22.9390 C.ar    1  LIG   0.3947   0.1600 
3     H1       6.0082  -36.2811   22.6707 H       1  LIG   0.0281   0.1500 
4     C2       4.6240  -35.4500   24.0360 C.ar    1  LIG  -0.2334  -0.1500 
5     H2       5.3884  -34.9151   24.5740 H       1  LIG   0.1480   0.1500 
6     C3       3.3050  -35.3690   24.4150 C.ar    1  LIG  -0.0698  -0.1435 
7     C4       2.3460  -36.0770   23.6860 C.ar    1  LIG  -0.0398   0.1170 
8     N2       0.9890  -36.0280   24.1030 N.am    1  LIG  -0.4596  -0.5470 
9     H3       0.7643  -35.9928   25.0860 H       1  LIG   0.3311   0.3700 
10    C5      -0.1450  -36.0180   23.4080 C.2     1  LIG   0.7361   0.5438 
11    C6      -0.1190  -36.0770   21.8860 C.ar    1  LIG  -0.2550   0.0862 
12    C7      -1.1230  -35.3990   21.1890 C.ar    1  LIG  -0.0321  -0.1500 
13    H4      -1.7552  -34.6955   21.7041 H       1  LIG   0.1623   0.1500 
14    C8      -1.2960  -35.6300   19.8690 C.ar    1  LIG  -0.2723  -0.1500 
15    H5      -2.0662  -35.1073   19.3273 H       1  LIG   0.1522   0.1500 
16    C9      -0.4670  -36.5450   19.2400 C.ar    1  LIG   0.4373   0.1600 
17    H6      -0.5947  -36.7554   18.1915 H       1  LIG   0.0280   0.1500 
18    N3       0.5220  -37.2120   19.8740 N.ar    1  LIG  -0.6893  -0.6200 
19    C10      0.7040  -36.9790   21.1800 C.ar    1  LIG   0.6480   0.4100 
20    N4       1.7670  -37.6730   21.8260 N.pl3   1  LIG  -0.6924  -0.3690 
21    C11      2.7540  -36.8570   22.5840 C.ar    1  LIG   0.5805   0.4100 
22    C12      2.9040  -34.5090   25.6010 C.3     1  LIG  -0.0620   0.1435 
23    H7       2.2235  -33.7630   25.2820 H       1  LIG   0.0570   0.0000 
24    H8       2.4436  -35.1154   26.3371 H       1  LIG   0.0495   0.0000 
25    H9       3.7654  -34.0491   26.0108 H       1  LIG   0.0519   0.0000 
26    O1      -1.2400  -35.9060   23.9770 O.2     1  LIG  -0.6361  -0.5700 
27    C13      2.3440  -38.7570   21.0360 C.3     1  LIG   0.1354   0.0690 
28    H10      3.1238  -38.3754   20.4296 H       1  LIG   0.0981   0.1000 
29    C14      2.9380  -39.8900   21.8010 C.3     1  LIG  -0.1181  -0.2000 
30    H11      3.8890  -40.1268   21.3997 H       1  LIG   0.0732   0.1000 
31    H12      3.0430  -39.6129   22.8177 H       1  LIG   0.0789   0.1000 
32    C15      1.6390  -40.0610   21.0880 C.3     1  LIG  -0.1196  -0.2000 
33    H13      0.6832  -39.9283   21.5242 H       1  LIG   0.0807   0.1000 
34    H14      1.5292  -40.4423   20.1061 H       1  LIG   0.0733   0.1000 
@<TRIPOS>BOND
1     2     1     ar
2     3     2     1
3     4     2     ar
4     5     4     1
5     6     4     ar
6     7     6     ar
7     8     7     1
8     9     8     1
9     10    8     1
10    11    10    1
11    12    11    ar
12    13    12    1
13    14    12    ar
14    15    14    1
15    16    14    ar
16    17    16    1
17    18    16    ar
18    19    11    ar
19    19    18    ar
20    20    19    1
21    21    1     ar
22    21    7     ar
23    21    20    1
24    22    6     1
25    23    22    1
26    24    22    1
27    25    22    1
28    26    10    2
29    27    20    1
30    28    27    1
31    29    27    1
32    30    29    1
33    31    29    1
34    32    27    1
35    32    29    1
36    33    32    1
37    34    32    1
@<TRIPOS>SUBSTRUCTURE
1   LIG    1    
 
########## Name        : 1VRT.lig
########## Description : AM1BCC_CHARGES =  -0.0002 ORIGINAL_CHARGES =  -0.0000

@<TRIPOS>MOLECULE
1VRT.lig
34    37    1     0     0    
SMALL
USER_CHARGES
@<TRIPOS>ATOM
1     N1       4.0540  -36.9310   22.2210 N.ar    1  LIG  -0.6650  -0.6200 
2     C1       4.9660  -36.2380   22.9390 C.ar    1  LIG   0.3947   0.1600 
3     H1       6.0082  -36.2811   22.6707 H       1  LIG   0.0281   0.1500 
4     C2       4.6240  -35.4500   24.0360 C.ar    1  LIG  -0.2334  -0.1500 
5     H2       5.3884  -34.9151   24.5740 H       1  LIG   0.1480   0.1500 
6     C3       3.3050  -35.3690   24.4150 C.ar    1  LIG  -0.0698  -0.1435 
7     C4       2.3460  -36.0770   23.6860 C.ar    1  LIG  -0.0398   0.1170 
8     N2       0.9890  -36.0280   24.1030 N.am    1  LIG  -0.4596  -0.5470 
9     H3       0.7643  -35.9928   25.0860 H       1  LIG   0.3311   0.3700 
10    C5      -0.1450  -36.0180   23.4080 C.2     1  LIG   0.7361   0.5438 
11    C6      -0.1190  -36.0770   21.8860 C.ar    1  LIG  -0.2550   0.0862 
12    C7      -1.1230  -35.3990   21.1890 C.ar    1  LIG  -0.0321  -0.1500 
13    H4      -1.7552  -34.6955   21.7041 H       1  LIG   0.1623   0.1500 
14    C8      -1.2960  -35.6300   19.8690 C.ar    1  LIG  -0.2723  -0.1500 
15    H5      -2.0662  -35.1073   19.3273 H       1  LIG   0.1522   0.1500 
16    C9      -0.4670  -36.5450   19.2400 C.ar    1  LIG   0.4373   0.1600 
17    H6      -0.5947  -36.7554   18.1915 H       1  LIG   0.0280   0.1500 
18    N3       0.5220  -37.2120   19.8740 N.ar    1  LIG  -0.6893  -0.6200 
19    C10      0.7040  -36.9790   21.1800 C.ar    1  LIG   0.6480   0.4100 
20    N4       1.7670  -37.6730   21.8260 N.pl3   1  LIG  -0.6924  -0.3690 
21    C11      2.7540  -36.8570   22.5840 C.ar    1  LIG   0.5805   0.4100 
22    C12      2.9040  -34.5090   25.6010 C.3     1  LIG  -0.0620   0.1435 
23    H7       2.2235  -33.7630   25.2820 H       1  LIG   0.0570   0.0000 
24    H8       2.4436  -35.1154   26.3371 H       1  LIG   0.0495   0.0000 
25    H9       3.7654  -34.0491   26.0108 H       1  LIG   0.0519   0.0000 
26    O1      -1.2400  -35.9060   23.9770 O.2     1  LIG  -0.6361  -0.5700 
27    C13      2.3440  -38.7570   21.0360 C.3     1  LIG   0.1354   0.0690 
28    H10      3.1238  -38.3754   20.4296 H       1  LIG   0.0981   0.1000 
29    C14      2.9380  -39.8900   21.8010 C.3     1  LIG  -0.1181  -0.2000 
30    H11      3.8890  -40.1268   21.3997 H       1  LIG   0.0732   0.1000 
31    H12      3.0430  -39.6129   22.8177 H       1  LIG   0.0789   0.1000 
32    C15      1.6390  -40.0610   21.0880 C.3     1  LIG  -0.1196  -0.2000 
33    H13      0.6832  -39.9283   21.5242 H       1  LIG   0.0807   0.1000 
34    H14      1.5292  -40.4423   20.1061 H       1  LIG   0.0733   0.1000 
@<TRIPOS>BOND
1     2     1     ar
2     3     2     1
3     4     2     ar
4     5     4     1
5     6     4     ar
6     7     6     ar
7     8     7     1
8     9     8     1
9     10    8     1
10    11    10    1
11    12    11    ar
12    13    12    1
13    14    12    ar
14    15    14    1
15    16    14    ar
16    17    16    1
17    18    16    ar
18    19    11    ar
19    19    18    ar
20    20    19    1
21    21    1     ar
22    21    7     ar
23    21    20    1
24    22    6     1
25    23    22    1
26    24    22    1
27    25    22    1
28    26    10    2
29    27    20    1
30    28    27    1
31    29    27    1
32    30    29    1
33    31    29    1
34    32    27    1
35    32    29    1
36    33    32    1
37    34    32    1
@<TRIPOS>SUBSTRUCTURE
1   LIG    1    
 
########## Name        : 1VRT.lig
########## Description : AM1BCC_CHARGES =  -0.0002 ORIGINAL_CHARGES =  -0.0000

@<TRIPOS>MOLECULE
1VRT.lig
34    37    1     0     0    
SMALL
USER_CHARGES
@<TRIPOS>ATOM
1     N1       4.0540  -36.9310   22.2210 N.ar    1  LIG  -0.6650  -0.6200 
2     C1       4.9660  -36.2380   22.9390 C.ar    1  LIG   0.3947   0.1600 
3     H1       6.0082  -36.2811   22.6707 H       1  LIG   0.0281   0.1500 
4     C2       4.6240  -35.4500   24.0360 C.ar    1  LIG  -0.2334  -0.1500 
5     H2       5.3884  -34.9151   24.5740 H       1  LIG   0.1480   0.1500 
6     C3       3.3050  -35.3690   24.4150 C.ar    1  LIG  -0.0698  -0.1435 
7     C4       2.3460  -36.0770   23.6860 C.ar    1  LIG  -0.0398   0.1170 
8     N2       0.9890  -36.0280   24.1030 N.am    1  LIG  -0.4596  -0.5470 
9     H3       0.7643  -35.9928   25.0860 H       1  LIG   0.3311   0.3700 
10    C5      -0.1450  -36.0180   23.4080 C.2     1  LIG   0.7361   0.5438 
11    C6      -0.1190  -36.0770   21.8860 C.ar    1  LIG  -0.2550   0.0862 
12    C7      -1.1230  -35.3990   21.1890 C.ar    1  LIG  -0.0321  -0.1500 
13    H4      -1.7552  -34.6955   21.7041 H       1  LIG   0.1623   0.1500 
14    C8      -1.2960  -35.6300   19.8690 C.ar    1  LIG  -0.2723  -0.1500 
15    H5      -2.0662  -35.1073   19.3273 H       1  LIG   0.1522   0.1500 
16    C9      -0.4670  -36.5450   19.2400 C.ar    1  LIG   0.4373   0.1600 
17    H6      -0.5947  -36.7554   18.1915 H       1  LIG   0.0280   0.1500 
18    N3       0.5220  -37.2120   19.8740 N.ar    1  LIG  -0.6893  -0.6200 
19    C10      0.7040  -36.9790   21.1800 C.ar    1  LIG   0.6480   0.4100 
20    N4       1.7670  -37.6730   21.8260 N.pl3   1  LIG  -0.6924  -0.3690 
21    C11      2.7540  -36.8570   22.5840 C.ar    1  LIG   0.5805   0.4100 
22    C12      2.9040  -34.5090   25.6010 C.3     1  LIG  -0.0620   0.1435 
23    H7       2.2235  -33.7630   25.2820 H       1  LIG   0.0570   0.0000 
24    H8       2.4436  -35.1154   26.3371 H       1  LIG   0.0495   0.0000 
25    H9       3.7654  -34.0491   26.0108 H       1  LIG   0.0519   0.0000 
26    O1      -1.2400  -35.9060   23.9770 O.2     1  LIG  -0.6361  -0.5700 
27    C13      2.3440  -38.7570   21.0360 C.3     1  LIG   0.1354   0.0690 
28    H10      3.1238  -38.3754   20.4296 H       1  LIG   0.0981   0.1000 
29    C14      2.9380  -39.8900   21.8010 C.3     1  LIG  -0.1181  -0.2000 
30    H11      3.8890  -40.1268   21.3997 H       1  LIG   0.0732   0.1000 
31    H12      3.0430  -39.6129   22.8177 H       1  LIG   0.0789   0.1000 
32    C15      1.6390  -40.0610   21.0880 C.3     1  LIG  -0.1196  -0.2000 
33    H13      0.6832  -39.9283   21.5242 H       1  LIG   0.0807   0.1000 
34    H14      1.5292  -40.4423   20.1061 H       1  LIG   0.0733   0.1000 
@<TRIPOS>BOND
1     2     1     ar
2     3     2     1
3     4     2     ar
4     5     4     1
5     6     4     ar
6     7     6     ar
7     8     7     1
8     9     8     1
9     10    8     1
10    11    10    1
11    12    11    ar
12    13    12    1
13    14    12    ar
14    15    14    1
15    16    14    ar
16    17    16    1
17    18    16    ar
18    19    11    ar
19    19    18    ar
20    20    19    1
21    21    1     ar
22    21    7     ar
23    21    20    1
24    22    6     1
25    23    22    1
26    24    22    1
27    25    22    1
28    26    10    2
29    27    20    1
30    28    27    1
31    29    27    1
32    30    29    1
33    31    29    1
34    32    27    1
35    32    29    1
36    33    32    1
37    34    32    1
@<TRIPOS>SUBSTRUCTURE
1   LIG    1    
 
########## Name        : 1VRT.lig
########## Description : AM1BCC_CHARGES =  -0.0002 ORIGINAL_CHARGES =  -0.0000

@<TRIPOS>MOLECULE
1VRT.lig
34    37    1     0     0    
SMALL
USER_CHARGES
@<TRIPOS>ATOM
1     N1       4.0540  -36.9310   22.2210 N.ar    1  LIG  -0.6650  -0.6200 
2     C1       4.9660  -36.2380   22.9390 C.ar    1  LIG   0.3947   0.1600 
3     H1       6.0082  -36.2811   22.6707 H       1  LIG   0.0281   0.1500 
4     C2       4.6240  -35.4500   24.0360 C.ar    1  LIG  -0.2334  -0.1500 
5     H2       5.3884  -34.9151   24.5740 H       1  LIG   0.1480   0.1500 
6     C3       3.3050  -35.3690   24.4150 C.ar    1  LIG  -0.0698  -0.1435 
7     C4       2.3460  -36.0770   23.6860 C.ar    1  LIG  -0.0398   0.1170 
8     N2       0.9890  -36.0280   24.1030 N.am    1  LIG  -0.4596  -0.5470 
9     H3       0.7643  -35.9928   25.0860 H       1  LIG   0.3311   0.3700 
10    C5      -0.1450  -36.0180   23.4080 C.2     1  LIG   0.7361   0.5438 
11    C6      -0.1190  -36.0770   21.8860 C.ar    1  LIG  -0.2550   0.0862 
12    C7      -1.1230  -35.3990   21.1890 C.ar    1  LIG  -0.0321  -0.1500 
13    H4      -1.7552  -34.6955   21.7041 H       1  LIG   0.1623   0.1500 
14    C8      -1.2960  -35.6300   19.8690 C.ar    1  LIG  -0.2723  -0.1500 
15    H5      -2.0662  -35.1073   19.3273 H       1  LIG   0.1522   0.1500 
16    C9      -0.4670  -36.5450   19.2400 C.ar    1  LIG   0.4373   0.1600 
17    H6      -0.5947  -36.7554   18.1915 H       1  LIG   0.0280   0.1500 
18    N3       0.5220  -37.2120   19.8740 N.ar    1  LIG  -0.6893  -0.6200 
19    C10      0.7040  -36.9790   21.1800 C.ar    1  LIG   0.6480   0.4100 
20    N4       1.7670  -37.6730   21.8260 N.pl3   1  LIG  -0.6924  -0.3690 
21    C11      2.7540  -36.8570   22.5840 C.ar    1  LIG   0.5805   0.4100 
22    C12      2.9040  -34.5090   25.6010 C.3     1  LIG  -0.0620   0.1435 
23    H7       2.2235  -33.7630   25.2820 H       1  LIG   0.0570   0.0000 
24    H8       2.4436  -35.1154   26.3371 H       1  LIG   0.0495   0.0000 
25    H9       3.7654  -34.0491   26.0108 H       1  LIG   0.0519   0.0000 
26    O1      -1.2400  -35.9060   23.9770 O.2     1  LIG  -0.6361  -0.5700 
27    C13      2.3440  -38.7570   21.0360 C.3     1  LIG   0.1354   0.0690 
28    H10      3.1238  -38.3754   20.4296 H       1  LIG   0.0981   0.1000 
29    C14      2.9380  -39.8900   21.8010 C.3     1  LIG  -0.1181  -0.2000 
30    H11      3.8890  -40.1268   21.3997 H       1  LIG   0.0732   0.1000 
31    H12      3.0430  -39.6129   22.8177 H       1  LIG   0.0789   0.1000 
32    C15      1.6390  -40.0610   21.0880 C.3     1  LIG  -0.1196  -0.2000 
33    H13      0.6832  -39.9283   21.5242 H       1  LIG   0.0807   0.1000 
34    H14      1.5292  -40.4423   20.1061 H       1  LIG   0.0733   0.1000 
@<TRIPOS>BOND
1     2     1     ar
2     3     2     1
3     4     2     ar
4     5     4     1
5     6     4     ar
6     7     6     ar
7     8     7     1
8     9     8     1
9     10    8     1
10    11    10    1
11    12    11    ar
12    13    12    1
13    14    12    ar
14    15    14    1
15    16    14    ar
16    17    16    1
17    18    16    ar
18    19    11    ar
19    19    18    ar
20    20    19    1
21    21    1     ar
22    21    7     ar
23    21    20    1
24    22    6     1
25    23    22    1
26    24    22    1
27    25    22    1
28    26    10    2
29    27    20    1
30    28    27    1
31    29    27    1
32    30    29    1
33    31    29    1
34    32    27    1
35    32    29    1
36    33    32    1
37    34    32    1
@<TRIPOS>SUBSTRUCTURE
1   LIG    1    
 
########## Name        : 1VRT.lig
########## Description : AM1BCC_CHARGES =  -0.0002 ORIGINAL_CHARGES =  -0.0000

@<TRIPOS>MOLECULE
1VRT.lig
34    37    1     0     0    
SMALL
USER_CHARGES
@<TRIPOS>ATOM
1     N1       4.0540  -36.9310   22.2210 N.ar    1  LIG  -0.6650  -0.6200 
2     C1       4.9660  -36.2380   22.9390 C.ar    1  LIG   0.3947   0.1600 
3     H1       6.0082  -36.2811   22.6707 H       1  LIG   0.0281   0.1500 
4     C2       4.6240  -35.4500   24.0360 C.ar    1  LIG  -0.2334  -0.1500 
5     H2       5.3884  -34.9151   24.5740 H       1  LIG   0.1480   0.1500 
6     C3       3.3050  -35.3690   24.4150 C.ar    1  LIG  -0.0698  -0.1435 
7     C4       2.3460  -36.0770   23.6860 C.ar    1  LIG  -0.0398   0.1170 
8     N2       0.9890  -36.0280   24.1030 N.am    1  LIG  -0.4596  -0.5470 
9     H3       0.7643  -35.9928   25.0860 H       1  LIG   0.3311   0.3700 
10    C5      -0.1450  -36.0180   23.4080 C.2     1  LIG   0.7361   0.5438 
11    C6      -0.1190  -36.0770   21.8860 C.ar    1  LIG  -0.2550   0.0862 
12    C7      -1.1230  -35.3990   21.1890 C.ar    1  LIG  -0.0321  -0.1500 
13    H4      -1.7552  -34.6955   21.7041 H       1  LIG   0.1623   0.1500 
14    C8      -1.2960  -35.6300   19.8690 C.ar    1  LIG  -0.2723  -0.1500 
15    H5      -2.0662  -35.1073   19.3273 H       1  LIG   0.1522   0.1500 
16    C9      -0.4670  -36.5450   19.2400 C.ar    1  LIG   0.4373   0.1600 
17    H6      -0.5947  -36.7554   18.1915 H       1  LIG   0.0280   0.1500 
18    N3       0.5220  -37.2120   19.8740 N.ar    1  LIG  -0.6893  -0.6200 
19    C10      0.7040  -36.9790   21.1800 C.ar    1  LIG   0.6480   0.4100 
20    N4       1.7670  -37.6730   21.8260 N.pl3   1  LIG  -0.6924  -0.3690 
21    C11      2.7540  -36.8570   22.5840 C.ar    1  LIG   0.5805   0.4100 
22    C12      2.9040  -34.5090   25.6010 C.3     1  LIG  -0.0620   0.1435 
23    H7       2.2235  -33.7630   25.2820 H       1  LIG   0.0570   0.0000 
24    H8       2.4436  -35.1154   26.3371 H       1  LIG   0.0495   0.0000 
25    H9       3.7654  -34.0491   26.0108 H       1  LIG   0.0519   0.0000 
26    O1      -1.2400  -35.9060   23.9770 O.2     1  LIG  -0.6361  -0.5700 
27    C13      2.3440  -38.7570   21.0360 C.3     1  LIG   0.1354   0.0690 
28    H10      3.1238  -38.3754   20.4296 H       1  LIG   0.0981   0.1000 
29    C14      2.9380  -39.8900   21.8010 C.3     1  LIG  -0.1181  -0.2000 
30    H11      3.8890  -40.1268   21.3997 H       1  LIG   0.0732   0.1000 
31    H12      3.0430  -39.6129   22.8177 H       1  LIG   0.0789   0.1000 
32    C15      1.6390  -40.0610   21.0880 C.3     1  LIG  -0.1196  -0.2000 
33    H13      0.6832  -39.9283   21.5242 H       1  LIG   0.0807   0.1000 
34    H14      1.5292  -40.4423   20.1061 H       1  LIG   0.0733   0.1000 
@<TRIPOS>BOND
1     2     1     ar
2     3     2     1
3     4     2     ar
4     5     4     1
5     6     4     ar
6     7     6     ar
7     8     7     1
8     9     8     1
9     10    8     1
10    11    10    1
11    12    11    ar
12    13    12    1
13    14    12    ar
14    15    14    1
15    16    14    ar
16    17    16    1
17    18    16    ar
18    19    11    ar
19    19    18    ar
20    20    19    1
21    21    1     ar
22    21    7     ar
23    21    20    1
24    22    6     1
25    23    22    1
26    24    22    1
27    25    22    1
28    26    10    2
29    27    20    1
30    28    27    1
31    29    27    1
32    30    29    1
33    31    29    1
34    32    27    1
35    32    29    1
36    33    32    1
37    34    32    1
@<TRIPOS>SUBSTRUCTURE
1   LIG    1    
 
########## Name        : 1VRT.lig
########## Description : AM1BCC_CHARGES =  -0.0002 ORIGINAL_CHARGES =  -0.0000

@<TRIPOS>MOLECULE
1VRT.lig
34    37    1     0     0    
SMALL
USER_CHARGES
@<TRIPOS>ATOM
1     N1       4.0540  -36.9310   22.2210 N.ar    1  LIG  -0.6650  -0.6200 
2     C1       4.9660  -36.2380   22.9390 C.ar    1  LIG   0.3947   0.1600 
3     H1       6.0082  -36.2811   22.6707 H       1  LIG   0.0281   0.1500 
4     C2       4.6240  -35.4500   24.0360 C.ar    1  LIG  -0.2334  -0.1500 
5     H2       5.3884  -34.9151   24.5740 H       1  LIG   0.1480   0.1500 
6     C3       3.3050  -35.3690   24.4150 C.ar    1  LIG  -0.0698  -0.1435 
7     C4       2.3460  -36.0770   23.6860 C.ar    1  LIG  -0.0398   0.1170 
8     N2       0.9890  -36.0280   24.1030 N.am    1  LIG  -0.4596  -0.5470 
9     H3       0.7643  -35.9928   25.0860 H       1  LIG   0.3311   0.3700 
10    C5      -0.1450  -36.0180   23.4080 C.2     1  LIG   0.7361   0.5438 
11    C6      -0.1190  -36.0770   21.8860 C.ar    1  LIG  -0.2550   0.0862 
12    C7      -1.1230  -35.3990   21.1890 C.ar    1  LIG  -0.0321  -0.1500 
13    H4      -1.7552  -34.6955   21.7041 H       1  LIG   0.1623   0.1500 
14    C8      -1.2960  -35.6300   19.8690 C.ar    1  LIG  -0.2723  -0.1500 
15    H5      -2.0662  -35.1073   19.3273 H       1  LIG   0.1522   0.1500 
16    C9      -0.4670  -36.5450   19.2400 C.ar    1  LIG   0.4373   0.1600 
17    H6      -0.5947  -36.7554   18.1915 H       1  LIG   0.0280   0.1500 
18    N3       0.5220  -37.2120   19.8740 N.ar    1  LIG  -0.6893  -0.6200 
19    C10      0.7040  -36.9790   21.1800 C.ar    1  LIG   0.6480   0.4100 
20    N4       1.7670  -37.6730   21.8260 N.pl3   1  LIG  -0.6924  -0.3690 
21    C11      2.7540  -36.8570   22.5840 C.ar    1  LIG   0.5805   0.4100 
22    C12      2.9040  -34.5090   25.6010 C.3     1  LIG  -0.0620   0.1435 
23    H7       2.2235  -33.7630   25.2820 H       1  LIG   0.0570   0.0000 
24    H8       2.4436  -35.1154   26.3371 H       1  LIG   0.0495   0.0000 
25    H9       3.7654  -34.0491   26.0108 H       1  LIG   0.0519   0.0000 
26    O1      -1.2400  -35.9060   23.9770 O.2     1  LIG  -0.6361  -0.5700 
27    C13      2.3440  -38.7570   21.0360 C.3     1  LIG   0.1354   0.0690 
28    H10      3.1238  -38.3754   20.4296 H       1  LIG   0.0981   0.1000 
29    C14      2.9380  -39.8900   21.8010 C.3     1  LIG  -0.1181  -0.2000 
30    H11      3.8890  -40.1268   21.3997 H       1  LIG   0.0732   0.1000 
31    H12      3.0430  -39.6129   22.8177 H       1  LIG   0.0789   0.1000 
32    C15      1.6390  -40.0610   21.0880 C.3     1  LIG  -0.1196  -0.2000 
33    H13      0.6832  -39.9283   21.5242 H       1  LIG   0.0807   0.1000 
34    H14      1.5292  -40.4423   20.1061 H       1  LIG   0.0733   0.1000 
@<TRIPOS>BOND
1     2     1     ar
2     3     2     1
3     4     2     ar
4     5     4     1
5     6     4     ar
6     7     6     ar
7     8     7     1
8     9     8     1
9     10    8     1
10    11    10    1
11    12    11    ar
12    13    12    1
13    14    12    ar
14    15    14    1
15    16    14    ar
16    17    16    1
17    18    16    ar
18    19    11    ar
19    19    18    ar
20    20    19    1
21    21    1     ar
22    21    7     ar
23    21    20    1
24    22    6     1
25    23    22    1
26    24    22    1
27    25    22    1
28    26    10    2
29    27    20    1
30    28    27    1
31    29    27    1
32    30    29    1
33    31    29    1
34    32    27    1
35    32    29    1
36    33    32    1
37    34    32    1
@<TRIPOS>SUBSTRUCTURE
1   LIG    1    
 
########## Name        : 1VRT.lig
########## Description : AM1BCC_CHARGES =  -0.0002 ORIGINAL_CHARGES =  -0.0000

@<TRIPOS>MOLECULE
1VRT.lig
34    37    1     0     0    
SMALL
USER_CHARGES
@<TRIPOS>ATOM
1     N1       4.0540  -36.9310   22.2210 N.ar    1  LIG  -0.6650  -0.6200 
2     C1       4.9660  -36.2380   22.9390 C.ar    1  LIG   0.3947   0.1600 
3     H1       6.0082  -36.2811   22.6707 H       1  LIG   0.0281   0.1500 
4     C2       4.6240  -35.4500   24.0360 C.ar    1  LIG  -0.2334  -0.1500 
5     H2       5.3884  -34.9151   24.5740 H       1  LIG   0.1480   0.1500 
6     C3       3.3050  -35.3690   24.4150 C.ar    1  LIG  -0.0698  -0.1435 
7     C4       2.3460  -36.0770   23.6860 C.ar    1  LIG  -0.0398   0.1170 
8     N2       0.9890  -36.0280   24.1030 N.am    1  LIG  -0.4596  -0.5470 
9     H3       0.7643  -35.9928   25.0860 H       1  LIG   0.3311   0.3700 
10    C5      -0.1450  -36.0180   23.4080 C.2     1  LIG   0.7361   0.5438 
11    C6      -0.1190  -36.0770   21.8860 C.ar    1  LIG  -0.2550   0.0862 
12    C7      -1.1230  -35.3990   21.1890 C.ar    1  LIG  -0.0321  -0.1500 
13    H4      -1.7552  -34.6955   21.7041 H       1  LIG   0.1623   0.1500 
14    C8      -1.2960  -35.6300   19.8690 C.ar    1  LIG  -0.2723  -0.1500 
15    H5      -2.0662  -35.1073   19.3273 H       1  LIG   0.1522   0.1500 
16    C9      -0.4670  -36.5450   19.2400 C.ar    1  LIG   0.4373   0.1600 
17    H6      -0.5947  -36.7554   18.1915 H       1  LIG   0.0280   0.1500 
18    N3       0.5220  -37.2120   19.8740 N.ar    1  LIG  -0.6893  -0.6200 
19    C10      0.7040  -36.9790   21.1800 C.ar    1  LIG   0.6480   0.4100 
20    N4       1.7670  -37.6730   21.8260 N.pl3   1  LIG  -0.6924  -0.3690 
21    C11      2.7540  -36.8570   22.5840 C.ar    1  LIG   0.5805   0.4100 
22    C12      2.9040  -34.5090   25.6010 C.3     1  LIG  -0.0620   0.1435 
23    H7       2.2235  -33.7630   25.2820 H       1  LIG   0.0570   0.0000 
24    H8       2.4436  -35.1154   26.3371 H       1  LIG   0.0495   0.0000 
25    H9       3.7654  -34.0491   26.0108 H       1  LIG   0.0519   0.0000 
26    O1      -1.2400  -35.9060   23.9770 O.2     1  LIG  -0.6361  -0.5700 
27    C13      2.3440  -38.7570   21.0360 C.3     1  LIG   0.1354   0.0690 
28    H10      3.1238  -38.3754   20.4296 H       1  LIG   0.0981   0.1000 
29    C14      2.9380  -39.8900   21.8010 C.3     1  LIG  -0.1181  -0.2000 
30    H11      3.8890  -40.1268   21.3997 H       1  LIG   0.0732   0.1000 
31    H12      3.0430  -39.6129   22.8177 H       1  LIG   0.0789   0.1000 
32    C15      1.6390  -40.0610   21.0880 C.3     1  LIG  -0.1196  -0.2000 
33    H13      0.6832  -39.9283   21.5242 H       1  LIG   0.0807   0.1000 
34    H14      1.5292  -40.4423   20.1061 H       1  LIG   0.0733   0.1000 
@<TRIPOS>BOND
1     2     1     ar
2     3     2     1
3     4     2     ar
4     5     4     1
5     6     4     ar
6     7     6     ar
7     8     7     1
8     9     8     1
9     10    8     1
10    11    10    1
11    12    11    ar
12    13    12    1
13    14    12    ar
14    15    14    1
15    16    14    ar
16    17    16    1
17    18    16    ar
18    19    11    ar
19    19    18    ar
20    20    19    1
21    21    1     ar
22    21    7     ar
23    21    20    1
24    22    6     1
25    23    22    1
26    24    22    1
27    25    22    1
28    26    10    2
29    27    20    1
30    28    27    1
31    29    27    1
32    30    29    1
33    31    29    1
34    32    27    1
35    32    29    1
36    33    32    1
37    34    32    1
@<TRIPOS>SUBSTRUCTURE
1   LIG    1    
 
########## Name        : 1VRT.lig
########## Description : AM1BCC_CHARGES =  -0.0002 ORIGINAL_CHARGES =  -0.0000

@<TRIPOS>MOLECULE
1VRT.lig
34    37    1     0     0    
SMALL
USER_CHARGES
@<TRIPOS>ATOM
1     N1       4.0540  -36.9310   22.2210 N.ar    1  LIG  -0.6650  -0.6200 
2     C1       4.9660  -36.2380   22.9390 C.ar    1  LIG   0.3947   0.1600 
3     H1       6.0082  -36.2811   22.6707 H       1  LIG   0.0281   0.1500 
4     C2       4.6240  -35.4500   24.0360 C.ar    1  LIG  -0.2334  -0.1500 
5     H2       5.3884  -34.9151   24.5740 H       1  LIG   0.1480   0.1500 
6     C3       3.3050  -35.3690   24.4150 C.ar    1  LIG  -0.0698  -0.1435 
7     C4       2.3460  -36.0770   23.6860 C.ar    1  LIG  -0.0398   0.1170 
8     N2       0.9890  -36.0280   24.1030 N.am    1  LIG  -0.4596  -0.5470 
9     H3       0.7643  -35.9928   25.0860 H       1  LIG   0.3311   0.3700 
10    C5      -0.1450  -36.0180   23.4080 C.2     1  LIG   0.7361   0.5438 
11    C6      -0.1190  -36.0770   21.8860 C.ar    1  LIG  -0.2550   0.0862 
12    C7      -1.1230  -35.3990   21.1890 C.ar    1  LIG  -0.0321  -0.1500 
13    H4      -1.7552  -34.6955   21.7041 H       1  LIG   0.1623   0.1500 
14    C8      -1.2960  -35.6300   19.8690 C.ar    1  LIG  -0.2723  -0.1500 
15    H5      -2.0662  -35.1073   19.3273 H       1  LIG   0.1522   0.1500 
16    C9      -0.4670  -36.5450   19.2400 C.ar    1  LIG   0.4373   0.1600 
17    H6      -0.5947  -36.7554   18.1915 H       1  LIG   0.0280   0.1500 
18    N3       0.5220  -37.2120   19.8740 N.ar    1  LIG  -0.6893  -0.6200 
19    C10      0.7040  -36.9790   21.1800 C.ar    1  LIG   0.6480   0.4100 
20    N4       1.7670  -37.6730   21.8260 N.pl3   1  LIG  -0.6924  -0.3690 
21    C11      2.7540  -36.8570   22.5840 C.ar    1  LIG   0.5805   0.4100 
22    C12      2.9040  -34.5090   25.6010 C.3     1  LIG  -0.0620   0.1435 
23    H7       2.2235  -33.7630   25.2820 H       1  LIG   0.0570   0.0000 
24    H8       2.4436  -35.1154   26.3371 H       1  LIG   0.0495   0.0000 
25    H9       3.7654  -34.0491   26.0108 H       1  LIG   0.0519   0.0000 
26    O1      -1.2400  -35.9060   23.9770 O.2     1  LIG  -0.6361  -0.5700 
27    C13      2.3440  -38.7570   21.0360 C.3     1  LIG   0.1354   0.0690 
28    H10      3.1238  -38.3754   20.4296 H       1  LIG   0.0981   0.1000 
29    C14      2.9380  -39.8900   21.8010 C.3     1  LIG  -0.1181  -0.2000 
30    H11      3.8890  -40.1268   21.3997 H       1  LIG   0.0732   0.1000 
31    H12      3.0430  -39.6129   22.8177 H       1  LIG   0.0789   0.1000 
32    C15      1.6390  -40.0610   21.0880 C.3     1  LIG  -0.1196  -0.2000 
33    H13      0.6832  -39.9283   21.5242 H       1  LIG   0.0807   0.1000 
34    H14      1.5292  -40.4423   20.1061 H       1  LIG   0.0733   0.1000 
@<TRIPOS>BOND
1     2     1     ar
2     3     2     1
3     4     2     ar
4     5     4     1
5     6     4     ar
6     7     6     ar
7     8     7     1
8     9     8     1
9     10    8     1
10    11    10    1
11    12    11    ar
12    13    12    1
13    14    12    ar
14    15    14    1
15    16    14    ar
16    17    16    1
17    18    16    ar
18    19    11    ar
19    19    18    ar
20    20    19    1
21    21    1     ar
22    21    7     ar
23    21    20    1
24    22    6     1
25    23    22    1
26    24    22    1
27    25    22    1
28    26    10    2
29    27    20    1
30    28    27    1
31    29    27    1
32    30    29    1
33    31    29    1
34    32    27    1
35    32    29    1
36    33    32    1
37    34    32    1
@<TRIPOS>SUBSTRUCTURE
1   LIG    1    
 
########## Name        : 1VRT.lig
########## Description : AM1BCC_CHARGES =  -0.0002 ORIGINAL_CHARGES =  -0.0000

@<TRIPOS>MOLECULE
1VRT.lig
34    37    1     0     0    
SMALL
USER_CHARGES
@<TRIPOS>ATOM
1     N1       4.0540  -36.9310   22.2210 N.ar    1  LIG  -0.6650  -0.6200 
2     C1       4.9660  -36.2380   22.9390 C.ar    1  LIG   0.3947   0.1600 
3     H1       6.0082  -36.2811   22.6707 H       1  LIG   0.0281   0.1500 
4     C2       4.6240  -35.4500   24.0360 C.ar    1  LIG  -0.2334  -0.1500 
5     H2       5.3884  -34.9151   24.5740 H       1  LIG   0.1480   0.1500 
6     C3       3.3050  -35.3690   24.4150 C.ar    1  LIG  -0.0698  -0.1435 
7     C4       2.3460  -36.0770   23.6860 C.ar    1  LIG  -0.0398   0.1170 
8     N2       0.9890  -36.0280   24.1030 N.am    1  LIG  -0.4596  -0.5470 
9     H3       0.7643  -35.9928   25.0860 H       1  LIG   0.3311   0.3700 
10    C5      -0.1450  -36.0180   23.4080 C.2     1  LIG   0.7361   0.5438 
11    C6      -0.1190  -36.0770   21.8860 C.ar    1  LIG  -0.2550   0.0862 
12    C7      -1.1230  -35.3990   21.1890 C.ar    1  LIG  -0.0321  -0.1500 
13    H4      -1.7552  -34.6955   21.7041 H       1  LIG   0.1623   0.1500 
14    C8      -1.2960  -35.6300   19.8690 C.ar    1  LIG  -0.2723  -0.1500 
15    H5      -2.0662  -35.1073   19.3273 H       1  LIG   0.1522   0.1500 
16    C9      -0.4670  -36.5450   19.2400 C.ar    1  LIG   0.4373   0.1600 
17    H6      -0.5947  -36.7554   18.1915 H       1  LIG   0.0280   0.1500 
18    N3       0.5220  -37.2120   19.8740 N.ar    1  LIG  -0.6893  -0.6200 
19    C10      0.7040  -36.9790   21.1800 C.ar    1  LIG   0.6480   0.4100 
20    N4       1.7670  -37.6730   21.8260 N.pl3   1  LIG  -0.6924  -0.3690 
21    C11      2.7540  -36.8570   22.5840 C.ar    1  LIG   0.5805   0.4100 
22    C12      2.9040  -34.5090   25.6010 C.3     1  LIG  -0.0620   0.1435 
23    H7       2.2235  -33.7630   25.2820 H       1  LIG   0.0570   0.0000 
24    H8       2.4436  -35.1154   26.3371 H       1  LIG   0.0495   0.0000 
25    H9       3.7654  -34.0491   26.0108 H       1  LIG   0.0519   0.0000 
26    O1      -1.2400  -35.9060   23.9770 O.2     1  LIG  -0.6361  -0.5700 
27    C13      2.3440  -38.7570   21.0360 C.3     1  LIG   0.1354   0.0690 
28    H10      3.1238  -38.3754   20.4296 H       1  LIG   0.0981   0.1000 
29    C14      2.9380  -39.8900   21.8010 C.3     1  LIG  -0.1181  -0.2000 
30    H11      3.8890  -40.1268   21.3997 H       1  LIG   0.0732   0.1000 
31    H12      3.0430  -39.6129   22.8177 H       1  LIG   0.0789   0.1000 
32    C15      1.6390  -40.0610   21.0880 C.3     1  LIG  -0.1196  -0.2000 
33    H13      0.6832  -39.9283   21.5242 H       1  LIG   0.0807   0.1000 
34    H14      1.5292  -40.4423   20.1061 H       1  LIG   0.0733   0.1000 
@<TRIPOS>BOND
1     2     1     ar
2     3     2     1
3     4     2     ar
4     5     4     1
5     6     4     ar
6     7     6     ar
7     8     7     1
8     9     8     1
9     10    8     1
10    11    10    1
11    12    11    ar
12    13    12    1
13    14    12    ar
14    15    14    1
15    16    14    ar
16    17    16    1
17    18    16    ar
18    19    11    ar
19    19    18    ar
20    20    19    1
21    21    1     ar
22    21    7     ar
23    21    20    1
24    22    6     1
25    23    22    1
26    24    22    1
27    25    22    1
28    26    10    2
29    27    20    1
30    28    27    1
31    29    27    1
32    30    29    1
33    31    29    1
34    32    27    1
35    32    29    1
36    33    32    1
37    34    32    1
@<TRIPOS>SUBSTRUCTURE
1   LIG    1    
 
########## Name        : 1VRT.lig
########## Description : AM1BCC_CHARGES =  -0.0002 ORIGINAL_CHARGES =  -0.0000

@<TRIPOS>MOLECULE
1VRT.lig
34    37    1     0     0    
SMALL
USER_CHARGES
@<TRIPOS>ATOM
1     N1       4.0540  -36.9310   22.2210 N.ar    1  LIG  -0.6650  -0.6200 
2     C1       4.9660  -36.2380   22.9390 C.ar    1  LIG   0.3947   0.1600 
3     H1       6.0082  -36.2811   22.6707 H       1  LIG   0.0281   0.1500 
4     C2       4.6240  -35.4500   24.0360 C.ar    1  LIG  -0.2334  -0.1500 
5     H2       5.3884  -34.9151   24.5740 H       1  LIG   0.1480   0.1500 
6     C3       3.3050  -35.3690   24.4150 C.ar    1  LIG  -0.0698  -0.1435 
7     C4       2.3460  -36.0770   23.6860 C.ar    1  LIG  -0.0398   0.1170 
8     N2       0.9890  -36.0280   24.1030 N.am    1  LIG  -0.4596  -0.5470 
9     H3       0.7643  -35.9928   25.0860 H       1  LIG   0.3311   0.3700 
10    C5      -0.1450  -36.0180   23.4080 C.2     1  LIG   0.7361   0.5438 
11    C6      -0.1190  -36.0770   21.8860 C.ar    1  LIG  -0.2550   0.0862 
12    C7      -1.1230  -35.3990   21.1890 C.ar    1  LIG  -0.0321  -0.1500 
13    H4      -1.7552  -34.6955   21.7041 H       1  LIG   0.1623   0.1500 
14    C8      -1.2960  -35.6300   19.8690 C.ar    1  LIG  -0.2723  -0.1500 
15    H5      -2.0662  -35.1073   19.3273 H       1  LIG   0.1522   0.1500 
16    C9      -0.4670  -36.5450   19.2400 C.ar    1  LIG   0.4373   0.1600 
17    H6      -0.5947  -36.7554   18.1915 H       1  LIG   0.0280   0.1500 
18    N3       0.5220  -37.2120   19.8740 N.ar    1  LIG  -0.6893  -0.6200 
19    C10      0.7040  -36.9790   21.1800 C.ar    1  LIG   0.6480   0.4100 
20    N4       1.7670  -37.6730   21.8260 N.pl3   1  LIG  -0.6924  -0.3690 
21    C11      2.7540  -36.8570   22.5840 C.ar    1  LIG   0.5805   0.4100 
22    C12      2.9040  -34.5090   25.6010 C.3     1  LIG  -0.0620   0.1435 
23    H7       2.2235  -33.7630   25.2820 H       1  LIG   0.0570   0.0000 
24    H8       2.4436  -35.1154   26.3371 H       1  LIG   0.0495   0.0000 
25    H9       3.7654  -34.0491   26.0108 H       1  LIG   0.0519   0.0000 
26    O1      -1.2400  -35.9060   23.9770 O.2     1  LIG  -0.6361  -0.5700 
27    C13      2.3440  -38.7570   21.0360 C.3     1  LIG   0.1354   0.0690 
28    H10      3.1238  -38.3754   20.4296 H       1  LIG   0.0981   0.1000 
29    C14      2.9380  -39.8900   21.8010 C.3     1  LIG  -0.1181  -0.2000 
30    H11      3.8890  -40.1268   21.3997 H       1  LIG   0.0732   0.1000 
31    H12      3.0430  -39.6129   22.8177 H       1  LIG   0.0789   0.1000 
32    C15      1.6390  -40.0610   21.0880 C.3     1  LIG  -0.1196  -0.2000 
33    H13      0.6832  -39.9283   21.5242 H       1  LIG   0.0807   0.1000 
34    H14      1.5292  -40.4423   20.1061 H       1  LIG   0.0733   0.1000 
@<TRIPOS>BOND
1     2     1     ar
2     3     2     1
3     4     2     ar
4     5     4     1
5     6     4     ar
6     7     6     ar
7     8     7     1
8     9     8     1
9     10    8     1
10    11    10    1
11    12    11    ar
12    13    12    1
13    14    12    ar
14    15    14    1
15    16    14    ar
16    17    16    1
17    18    16    ar
18    19    11    ar
19    19    18    ar
20    20    19    1
21    21    1     ar
22    21    7     ar
23    21    20    1
24    22    6     1
25    23    22    1
26    24    22    1
27    25    22    1
28    26    10    2
29    27    20    1
30    28    27    1
31    29    27    1
32    30    29    1
33    31    29    1
34    32    27    1
35    32    29    1
36    33    32    1
37    34    32    1
@<TRIPOS>SUBSTRUCTURE
1   LIG    1    
 
########## Name        : 1VRT.lig
########## Description : AM1BCC_CHARGES =  -0.0002 ORIGINAL_CHARGES =  -0.0000

@<TRIPOS>MOLECULE
1VRT.lig
34    37    1     0     0    
SMALL
USER_CHARGES
@<TRIPOS>ATOM
1     N1       4.0540  -36.9310   22.2210 N.ar    1  LIG  -0.6650  -0.6200 
2     C1       4.9660  -36.2380   22.9390 C.ar    1  LIG   0.3947   0.1600 
3     H1       6.0082  -36.2811   22.6707 H       1  LIG   0.0281   0.1500 
4     C2       4.6240  -35.4500   24.0360 C.ar    1  LIG  -0.2334  -0.1500 
5     H2       5.3884  -34.9151   24.5740 H       1  LIG   0.1480   0.1500 
6     C3       3.3050  -35.3690   24.4150 C.ar    1  LIG  -0.0698  -0.1435 
7     C4       2.3460  -36.0770   23.6860 C.ar    1  LIG  -0.0398   0.1170 
8     N2       0.9890  -36.0280   24.1030 N.am    1  LIG  -0.4596  -0.5470 
9     H3       0.7643  -35.9928   25.0860 H       1  LIG   0.3311   0.3700 
10    C5      -0.1450  -36.0180   23.4080 C.2     1  LIG   0.7361   0.5438 
11    C6      -0.1190  -36.0770   21.8860 C.ar    1  LIG  -0.2550   0.0862 
12    C7      -1.1230  -35.3990   21.1890 C.ar    1  LIG  -0.0321  -0.1500 
13    H4      -1.7552  -34.6955   21.7041 H       1  LIG   0.1623   0.1500 
14    C8      -1.2960  -35.6300   19.8690 C.ar    1  LIG  -0.2723  -0.1500 
15    H5      -2.0662  -35.1073   19.3273 H       1  LIG   0.1522   0.1500 
16    C9      -0.4670  -36.5450   19.2400 C.ar    1  LIG   0.4373   0.1600 
17    H6      -0.5947  -36.7554   18.1915 H       1  LIG   0.0280   0.1500 
18    N3       0.5220  -37.2120   19.8740 N.ar    1  LIG  -0.6893  -0.6200 
19    C10      0.7040  -36.9790   21.1800 C.ar    1  LIG   0.6480   0.4100 
20    N4       1.7670  -37.6730   21.8260 N.pl3   1  LIG  -0.6924  -0.3690 
21    C11      2.7540  -36.8570   22.5840 C.ar    1  LIG   0.5805   0.4100 
22    C12      2.9040  -34.5090   25.6010 C.3     1  LIG  -0.0620   0.1435 
23    H7       2.2235  -33.7630   25.2820 H       1  LIG   0.0570   0.0000 
24    H8       2.4436  -35.1154   26.3371 H       1  LIG   0.0495   0.0000 
25    H9       3.7654  -34.0491   26.0108 H       1  LIG   0.0519   0.0000 
26    O1      -1.2400  -35.9060   23.9770 O.2     1  LIG  -0.6361  -0.5700 
27    C13      2.3440  -38.7570   21.0360 C.3     1  LIG   0.1354   0.0690 
28    H10      3.1238  -38.3754   20.4296 H       1  LIG   0.0981   0.1000 
29    C14      2.9380  -39.8900   21.8010 C.3     1  LIG  -0.1181  -0.2000 
30    H11      3.8890  -40.1268   21.3997 H       1  LIG   0.0732   0.1000 
31    H12      3.0430  -39.6129   22.8177 H       1  LIG   0.0789   0.1000 
32    C15      1.6390  -40.0610   21.0880 C.3     1  LIG  -0.1196  -0.2000 
33    H13      0.6832  -39.9283   21.5242 H       1  LIG   0.0807   0.1000 
34    H14      1.5292  -40.4423   20.1061 H       1  LIG   0.0733   0.1000 
@<TRIPOS>BOND
1     2     1     ar
2     3     2     1
3     4     2     ar
4     5     4     1
5     6     4     ar
6     7     6     ar
7     8     7     1
8     9     8     1
9     10    8     1
10    11    10    1
11    12    11    ar
12    13    12    1
13    14    12    ar
14    15    14    1
15    16    14    ar
16    17    16    1
17    18    16    ar
18    19    11    ar
19    19    18    ar
20    20    19    1
21    21    1     ar
22    21    7     ar
23    21    20    1
24    22    6     1
25    23    22    1
26    24    22    1
27    25    22    1
28    26    10    2
29    27    20    1
30    28    27    1
31    29    27    1
32    30    29    1
33    31    29    1
34    32    27    1
35    32    29    1
36    33    32    1
37    34    32    1
@<TRIPOS>SUBSTRUCTURE
1   LIG    1    
 
########## Name        : 1VRT.lig
########## Description : AM1BCC_CHARGES =  -0.0002 ORIGINAL_CHARGES =  -0.0000

@<TRIPOS>MOLECULE
1VRT.lig
34    37    1     0     0    
SMALL
USER_CHARGES
@<TRIPOS>ATOM
1     N1       4.0540  -36.9310   22.2210 N.ar    1  LIG  -0.6650  -0.6200 
2     C1       4.9660  -36.2380   22.9390 C.ar    1  LIG   0.3947   0.1600 
3     H1       6.0082  -36.2811   22.6707 H       1  LIG   0.0281   0.1500 
4     C2       4.6240  -35.4500   24.0360 C.ar    1  LIG  -0.2334  -0.1500 
5     H2       5.3884  -34.9151   24.5740 H       1  LIG   0.1480   0.1500 
6     C3       3.3050  -35.3690   24.4150 C.ar    1  LIG  -0.0698  -0.1435 
7     C4       2.3460  -36.0770   23.6860 C.ar    1  LIG  -0.0398   0.1170 
8     N2       0.9890  -36.0280   24.1030 N.am    1  LIG  -0.4596  -0.5470 
9     H3       0.7643  -35.9928   25.0860 H       1  LIG   0.3311   0.3700 
10    C5      -0.1450  -36.0180   23.4080 C.2     1  LIG   0.7361   0.5438 
11    C6      -0.1190  -36.0770   21.8860 C.ar    1  LIG  -0.2550   0.0862 
12    C7      -1.1230  -35.3990   21.1890 C.ar    1  LIG  -0.0321  -0.1500 
13    H4      -1.7552  -34.6955   21.7041 H       1  LIG   0.1623   0.1500 
14    C8      -1.2960  -35.6300   19.8690 C.ar    1  LIG  -0.2723  -0.1500 
15    H5      -2.0662  -35.1073   19.3273 H       1  LIG   0.1522   0.1500 
16    C9      -0.4670  -36.5450   19.2400 C.ar    1  LIG   0.4373   0.1600 
17    H6      -0.5947  -36.7554   18.1915 H       1  LIG   0.0280   0.1500 
18    N3       0.5220  -37.2120   19.8740 N.ar    1  LIG  -0.6893  -0.6200 
19    C10      0.7040  -36.9790   21.1800 C.ar    1  LIG   0.6480   0.4100 
20    N4       1.7670  -37.6730   21.8260 N.pl3   1  LIG  -0.6924  -0.3690 
21    C11      2.7540  -36.8570   22.5840 C.ar    1  LIG   0.5805   0.4100 
22    C12      2.9040  -34.5090   25.6010 C.3     1  LIG  -0.0620   0.1435 
23    H7       2.2235  -33.7630   25.2820 H       1  LIG   0.0570   0.0000 
24    H8       2.4436  -35.1154   26.3371 H       1  LIG   0.0495   0.0000 
25    H9       3.7654  -34.0491   26.0108 H       1  LIG   0.0519   0.0000 
26    O1      -1.2400  -35.9060   23.9770 O.2     1  LIG  -0.6361  -0.5700 
27    C13      2.3440  -38.7570   21.0360 C.3     1  LIG   0.1354   0.0690 
28    H10      3.1238  -38.3754   20.4296 H       1  LIG   0.0981   0.1000 
29    C14      2.9380  -39.8900   21.8010 C.3     1  LIG  -0.1181  -0.2000 
30    H11      3.8890  -40.1268   21.3997 H       1  LIG   0.0732   0.1000 
31    H12      3.0430  -39.6129   22.8177 H       1  LIG   0.0789   0.1000 
32    C15      1.6390  -40.0610   21.0880 C.3     1  LIG  -0.1196  -0.2000 
33    H13      0.6832  -39.9283   21.5242 H       1  LIG   0.0807   0.1000 
34    H14      1.5292  -40.4423   20.1061 H       1  LIG   0.0733   0.1000 
@<TRIPOS>BOND
1     2     1     ar
2     3     2     1
3     4     2     ar
4     5     4     1
5     6     4     ar
6     7     6     ar
7     8     7     1
8     9     8     1
9     10    8     1
10    11    10    1
11    12    11    ar
12    13    12    1
13    14    12    ar
14    15    14    1
15    16    14    ar
16    17    16    1
17    18    16    ar
18    19    11    ar
19    19    18    ar
20    20    19    1
21    21    1     ar
22    21    7     ar
23    21    20    1
24    22    6     1
25    23    22    1
26    24    22    1
27    25    22    1
28    26    10    2
29    27    20    1
30    28    27    1
31    29    27    1
32    30    29    1
33    31    29    1
34    32    27    1
35    32    29    1
36    33    32    1
37    34    32    1
@<TRIPOS>SUBSTRUCTURE
1   LIG    1    
 
########## Name        : 1VRT.lig
########## Description : AM1BCC_CHARGES =  -0.0002 ORIGINAL_CHARGES =  -0.0000

@<TRIPOS>MOLECULE
1VRT.lig
34    37    1     0     0    
SMALL
USER_CHARGES
@<TRIPOS>ATOM
1     N1       4.0540  -36.9310   22.2210 N.ar    1  LIG  -0.6650  -0.6200 
2     C1       4.9660  -36.2380   22.9390 C.ar    1  LIG   0.3947   0.1600 
3     H1       6.0082  -36.2811   22.6707 H       1  LIG   0.0281   0.1500 
4     C2       4.6240  -35.4500   24.0360 C.ar    1  LIG  -0.2334  -0.1500 
5     H2       5.3884  -34.9151   24.5740 H       1  LIG   0.1480   0.1500 
6     C3       3.3050  -35.3690   24.4150 C.ar    1  LIG  -0.0698  -0.1435 
7     C4       2.3460  -36.0770   23.6860 C.ar    1  LIG  -0.0398   0.1170 
8     N2       0.9890  -36.0280   24.1030 N.am    1  LIG  -0.4596  -0.5470 
9     H3       0.7643  -35.9928   25.0860 H       1  LIG   0.3311   0.3700 
10    C5      -0.1450  -36.0180   23.4080 C.2     1  LIG   0.7361   0.5438 
11    C6      -0.1190  -36.0770   21.8860 C.ar    1  LIG  -0.2550   0.0862 
12    C7      -1.1230  -35.3990   21.1890 C.ar    1  LIG  -0.0321  -0.1500 
13    H4      -1.7552  -34.6955   21.7041 H       1  LIG   0.1623   0.1500 
14    C8      -1.2960  -35.6300   19.8690 C.ar    1  LIG  -0.2723  -0.1500 
15    H5      -2.0662  -35.1073   19.3273 H       1  LIG   0.1522   0.1500 
16    C9      -0.4670  -36.5450   19.2400 C.ar    1  LIG   0.4373   0.1600 
17    H6      -0.5947  -36.7554   18.1915 H       1  LIG   0.0280   0.1500 
18    N3       0.5220  -37.2120   19.8740 N.ar    1  LIG  -0.6893  -0.6200 
19    C10      0.7040  -36.9790   21.1800 C.ar    1  LIG   0.6480   0.4100 
20    N4       1.7670  -37.6730   21.8260 N.pl3   1  LIG  -0.6924  -0.3690 
21    C11      2.7540  -36.8570   22.5840 C.ar    1  LIG   0.5805   0.4100 
22    C12      2.9040  -34.5090   25.6010 C.3     1  LIG  -0.0620   0.1435 
23    H7       2.2235  -33.7630   25.2820 H       1  LIG   0.0570   0.0000 
24    H8       2.4436  -35.1154   26.3371 H       1  LIG   0.0495   0.0000 
25    H9       3.7654  -34.0491   26.0108 H       1  LIG   0.0519   0.0000 
26    O1      -1.2400  -35.9060   23.9770 O.2     1  LIG  -0.6361  -0.5700 
27    C13      2.3440  -38.7570   21.0360 C.3     1  LIG   0.1354   0.0690 
28    H10      3.1238  -38.3754   20.4296 H       1  LIG   0.0981   0.1000 
29    C14      2.9380  -39.8900   21.8010 C.3     1  LIG  -0.1181  -0.2000 
30    H11      3.8890  -40.1268   21.3997 H       1  LIG   0.0732   0.1000 
31    H12      3.0430  -39.6129   22.8177 H       1  LIG   0.0789   0.1000 
32    C15      1.6390  -40.0610   21.0880 C.3     1  LIG  -0.1196  -0.2000 
33    H13      0.6832  -39.9283   21.5242 H       1  LIG   0.0807   0.1000 
34    H14      1.5292  -40.4423   20.1061 H       1  LIG   0.0733   0.1000 
@<TRIPOS>BOND
1     2     1     ar
2     3     2     1
3     4     2     ar
4     5     4     1
5     6     4     ar
6     7     6     ar
7     8     7     1
8     9     8     1
9     10    8     1
10    11    10    1
11    12    11    ar
12    13    12    1
13    14    12    ar
14    15    14    1
15    16    14    ar
16    17    16    1
17    18    16    ar
18    19    11    ar
19    19    18    ar
20    20    19    1
21    21    1     ar
22    21    7     ar
23    21    20    1
24    22    6     1
25    23    22    1
26    24    22    1
27    25    22    1
28    26    10    2
29    27    20    1
30    28    27    1
31    29    27    1
32    30    29    1
33    31    29    1
34    32    27    1
35    32    29    1
36    33    32    1
37    34    32    1
@<TRIPOS>SUBSTRUCTURE
1   LIG    1    
 
########## Name        : 1VRT.lig
########## Description : AM1BCC_CHARGES =  -0.0002 ORIGINAL_CHARGES =  -0.0000

@<TRIPOS>MOLECULE
1VRT.lig
34    37    1     0     0    
SMALL
USER_CHARGES
@<TRIPOS>ATOM
1     N1       4.0540  -36.9310   22.2210 N.ar    1  LIG  -0.6650  -0.6200 
2     C1       4.9660  -36.2380   22.9390 C.ar    1  LIG   0.3947   0.1600 
3     H1       6.0082  -36.2811   22.6707 H       1  LIG   0.0281   0.1500 
4     C2       4.6240  -35.4500   24.0360 C.ar    1  LIG  -0.2334  -0.1500 
5     H2       5.3884  -34.9151   24.5740 H       1  LIG   0.1480   0.1500 
6     C3       3.3050  -35.3690   24.4150 C.ar    1  LIG  -0.0698  -0.1435 
7     C4       2.3460  -36.0770   23.6860 C.ar    1  LIG  -0.0398   0.1170 
8     N2       0.9890  -36.0280   24.1030 N.am    1  LIG  -0.4596  -0.5470 
9     H3       0.7643  -35.9928   25.0860 H       1  LIG   0.3311   0.3700 
10    C5      -0.1450  -36.0180   23.4080 C.2     1  LIG   0.7361   0.5438 
11    C6      -0.1190  -36.0770   21.8860 C.ar    1  LIG  -0.2550   0.0862 
12    C7      -1.1230  -35.3990   21.1890 C.ar    1  LIG  -0.0321  -0.1500 
13    H4      -1.7552  -34.6955   21.7041 H       1  LIG   0.1623   0.1500 
14    C8      -1.2960  -35.6300   19.8690 C.ar    1  LIG  -0.2723  -0.1500 
15    H5      -2.0662  -35.1073   19.3273 H       1  LIG   0.1522   0.1500 
16    C9      -0.4670  -36.5450   19.2400 C.ar    1  LIG   0.4373   0.1600 
17    H6      -0.5947  -36.7554   18.1915 H       1  LIG   0.0280   0.1500 
18    N3       0.5220  -37.2120   19.8740 N.ar    1  LIG  -0.6893  -0.6200 
19    C10      0.7040  -36.9790   21.1800 C.ar    1  LIG   0.6480   0.4100 
20    N4       1.7670  -37.6730   21.8260 N.pl3   1  LIG  -0.6924  -0.3690 
21    C11      2.7540  -36.8570   22.5840 C.ar    1  LIG   0.5805   0.4100 
22    C12      2.9040  -34.5090   25.6010 C.3     1  LIG  -0.0620   0.1435 
23    H7       2.2235  -33.7630   25.2820 H       1  LIG   0.0570   0.0000 
24    H8       2.4436  -35.1154   26.3371 H       1  LIG   0.0495   0.0000 
25    H9       3.7654  -34.0491   26.0108 H       1  LIG   0.0519   0.0000 
26    O1      -1.2400  -35.9060   23.9770 O.2     1  LIG  -0.6361  -0.5700 
27    C13      2.3440  -38.7570   21.0360 C.3     1  LIG   0.1354   0.0690 
28    H10      3.1238  -38.3754   20.4296 H       1  LIG   0.0981   0.1000 
29    C14      2.9380  -39.8900   21.8010 C.3     1  LIG  -0.1181  -0.2000 
30    H11      3.8890  -40.1268   21.3997 H       1  LIG   0.0732   0.1000 
31    H12      3.0430  -39.6129   22.8177 H       1  LIG   0.0789   0.1000 
32    C15      1.6390  -40.0610   21.0880 C.3     1  LIG  -0.1196  -0.2000 
33    H13      0.6832  -39.9283   21.5242 H       1  LIG   0.0807   0.1000 
34    H14      1.5292  -40.4423   20.1061 H       1  LIG   0.0733   0.1000 
@<TRIPOS>BOND
1     2     1     ar
2     3     2     1
3     4     2     ar
4     5     4     1
5     6     4     ar
6     7     6     ar
7     8     7     1
8     9     8     1
9     10    8     1
10    11    10    1
11    12    11    ar
12    13    12    1
13    14    12    ar
14    15    14    1
15    16    14    ar
16    17    16    1
17    18    16    ar
18    19    11    ar
19    19    18    ar
20    20    19    1
21    21    1     ar
22    21    7     ar
23    21    20    1
24    22    6     1
25    23    22    1
26    24    22    1
27    25    22    1
28    26    10    2
29    27    20    1
30    28    27    1
31    29    27    1
32    30    29    1
33    31    29    1
34    32    27    1
35    32    29    1
36    33    32    1
37    34    32    1
@<TRIPOS>SUBSTRUCTURE
1   LIG    1    
 
########## Name        : 1VRT.lig
########## Description : AM1BCC_CHARGES =  -0.0002 ORIGINAL_CHARGES =  -0.0000

@<TRIPOS>MOLECULE
1VRT.lig
34    37    1     0     0    
SMALL
USER_CHARGES
@<TRIPOS>ATOM
1     N1       4.0540  -36.9310   22.2210 N.ar    1  LIG  -0.6650  -0.6200 
2     C1       4.9660  -36.2380   22.9390 C.ar    1  LIG   0.3947   0.1600 
3     H1       6.0082  -36.2811   22.6707 H       1  LIG   0.0281   0.1500 
4     C2       4.6240  -35.4500   24.0360 C.ar    1  LIG  -0.2334  -0.1500 
5     H2       5.3884  -34.9151   24.5740 H       1  LIG   0.1480   0.1500 
6     C3       3.3050  -35.3690   24.4150 C.ar    1  LIG  -0.0698  -0.1435 
7     C4       2.3460  -36.0770   23.6860 C.ar    1  LIG  -0.0398   0.1170 
8     N2       0.9890  -36.0280   24.1030 N.am    1  LIG  -0.4596  -0.5470 
9     H3       0.7643  -35.9928   25.0860 H       1  LIG   0.3311   0.3700 
10    C5      -0.1450  -36.0180   23.4080 C.2     1  LIG   0.7361   0.5438 
11    C6      -0.1190  -36.0770   21.8860 C.ar    1  LIG  -0.2550   0.0862 
12    C7      -1.1230  -35.3990   21.1890 C.ar    1  LIG  -0.0321  -0.1500 
13    H4      -1.7552  -34.6955   21.7041 H       1  LIG   0.1623   0.1500 
14    C8      -1.2960  -35.6300   19.8690 C.ar    1  LIG  -0.2723  -0.1500 
15    H5      -2.0662  -35.1073   19.3273 H       1  LIG   0.1522   0.1500 
16    C9      -0.4670  -36.5450   19.2400 C.ar    1  LIG   0.4373   0.1600 
17    H6      -0.5947  -36.7554   18.1915 H       1  LIG   0.0280   0.1500 
18    N3       0.5220  -37.2120   19.8740 N.ar    1  LIG  -0.6893  -0.6200 
19    C10      0.7040  -36.9790   21.1800 C.ar    1  LIG   0.6480   0.4100 
20    N4       1.7670  -37.6730   21.8260 N.pl3   1  LIG  -0.6924  -0.3690 
21    C11      2.7540  -36.8570   22.5840 C.ar    1  LIG   0.5805   0.4100 
22    C12      2.9040  -34.5090   25.6010 C.3     1  LIG  -0.0620   0.1435 
23    H7       2.2235  -33.7630   25.2820 H       1  LIG   0.0570   0.0000 
24    H8       2.4436  -35.1154   26.3371 H       1  LIG   0.0495   0.0000 
25    H9       3.7654  -34.0491   26.0108 H       1  LIG   0.0519   0.0000 
26    O1      -1.2400  -35.9060   23.9770 O.2     1  LIG  -0.6361  -0.5700 
27    C13      2.3440  -38.7570   21.0360 C.3     1  LIG   0.1354   0.0690 
28    H10      3.1238  -38.3754   20.4296 H       1  LIG   0.0981   0.1000 
29    C14      2.9380  -39.8900   21.8010 C.3     1  LIG  -0.1181  -0.2000 
30    H11      3.8890  -40.1268   21.3997 H       1  LIG   0.0732   0.1000 
31    H12      3.0430  -39.6129   22.8177 H       1  LIG   0.0789   0.1000 
32    C15      1.6390  -40.0610   21.0880 C.3     1  LIG  -0.1196  -0.2000 
33    H13      0.6832  -39.9283   21.5242 H       1  LIG   0.0807   0.1000 
34    H14      1.5292  -40.4423   20.1061 H       1  LIG   0.0733   0.1000 
@<TRIPOS>BOND
1     2     1     ar
2     3     2     1
3     4     2     ar
4     5     4     1
5     6     4     ar
6     7     6     ar
7     8     7     1
8     9     8     1
9     10    8     1
10    11    10    1
11    12    11    ar
12    13    12    1
13    14    12    ar
14    15    14    1
15    16    14    ar
16    17    16    1
17    18    16    ar
18    19    11    ar
19    19    18    ar
20    20    19    1
21    21    1     ar
22    21    7     ar
23    21    20    1
24    22    6     1
25    23    22    1
26    24    22    1
27    25    22    1
28    26    10    2
29    27    20    1
30    28    27    1
31    29    27    1
32    30    29    1
33    31    29    1
34    32    27    1
35    32    29    1
36    33    32    1
37    34    32    1
@<TRIPOS>SUBSTRUCTURE
1   LIG    1    
 
########## Name        : 1VRT.lig
########## Description : AM1BCC_CHARGES =  -0.0002 ORIGINAL_CHARGES =  -0.0000

@<TRIPOS>MOLECULE
1VRT.lig
34    37    1     0     0    
SMALL
USER_CHARGES
@<TRIPOS>ATOM
1     N1       4.0540  -36.9310   22.2210 N.ar    1  LIG  -0.6650  -0.6200 
2     C1       4.9660  -36.2380   22.9390 C.ar    1  LIG   0.3947   0.1600 
3     H1       6.0082  -36.2811   22.6707 H       1  LIG   0.0281   0.1500 
4     C2       4.6240  -35.4500   24.0360 C.ar    1  LIG  -0.2334  -0.1500 
5     H2       5.3884  -34.9151   24.5740 H       1  LIG   0.1480   0.1500 
6     C3       3.3050  -35.3690   24.4150 C.ar    1  LIG  -0.0698  -0.1435 
7     C4       2.3460  -36.0770   23.6860 C.ar    1  LIG  -0.0398   0.1170 
8     N2       0.9890  -36.0280   24.1030 N.am    1  LIG  -0.4596  -0.5470 
9     H3       0.7643  -35.9928   25.0860 H       1  LIG   0.3311   0.3700 
10    C5      -0.1450  -36.0180   23.4080 C.2     1  LIG   0.7361   0.5438 
11    C6      -0.1190  -36.0770   21.8860 C.ar    1  LIG  -0.2550   0.0862 
12    C7      -1.1230  -35.3990   21.1890 C.ar    1  LIG  -0.0321  -0.1500 
13    H4      -1.7552  -34.6955   21.7041 H       1  LIG   0.1623   0.1500 
14    C8      -1.2960  -35.6300   19.8690 C.ar    1  LIG  -0.2723  -0.1500 
15    H5      -2.0662  -35.1073   19.3273 H       1  LIG   0.1522   0.1500 
16    C9      -0.4670  -36.5450   19.2400 C.ar    1  LIG   0.4373   0.1600 
17    H6      -0.5947  -36.7554   18.1915 H       1  LIG   0.0280   0.1500 
18    N3       0.5220  -37.2120   19.8740 N.ar    1  LIG  -0.6893  -0.6200 
19    C10      0.7040  -36.9790   21.1800 C.ar    1  LIG   0.6480   0.4100 
20    N4       1.7670  -37.6730   21.8260 N.pl3   1  LIG  -0.6924  -0.3690 
21    C11      2.7540  -36.8570   22.5840 C.ar    1  LIG   0.5805   0.4100 
22    C12      2.9040  -34.5090   25.6010 C.3     1  LIG  -0.0620   0.1435 
23    H7       2.2235  -33.7630   25.2820 H       1  LIG   0.0570   0.0000 
24    H8       2.4436  -35.1154   26.3371 H       1  LIG   0.0495   0.0000 
25    H9       3.7654  -34.0491   26.0108 H       1  LIG   0.0519   0.0000 
26    O1      -1.2400  -35.9060   23.9770 O.2     1  LIG  -0.6361  -0.5700 
27    C13      2.3440  -38.7570   21.0360 C.3     1  LIG   0.1354   0.0690 
28    H10      3.1238  -38.3754   20.4296 H       1  LIG   0.0981   0.1000 
29    C14      2.9380  -39.8900   21.8010 C.3     1  LIG  -0.1181  -0.2000 
30    H11      3.8890  -40.1268   21.3997 H       1  LIG   0.0732   0.1000 
31    H12      3.0430  -39.6129   22.8177 H       1  LIG   0.0789   0.1000 
32    C15      1.6390  -40.0610   21.0880 C.3     1  LIG  -0.1196  -0.2000 
33    H13      0.6832  -39.9283   21.5242 H       1  LIG   0.0807   0.1000 
34    H14      1.5292  -40.4423   20.1061 H       1  LIG   0.0733   0.1000 
@<TRIPOS>BOND
1     2     1     ar
2     3     2     1
3     4     2     ar
4     5     4     1
5     6     4     ar
6     7     6     ar
7     8     7     1
8     9     8     1
9     10    8     1
10    11    10    1
11    12    11    ar
12    13    12    1
13    14    12    ar
14    15    14    1
15    16    14    ar
16    17    16    1
17    18    16    ar
18    19    11    ar
19    19    18    ar
20    20    19    1
21    21    1     ar
22    21    7     ar
23    21    20    1
24    22    6     1
25    23    22    1
26    24    22    1
27    25    22    1
28    26    10    2
29    27    20    1
30    28    27    1
31    29    27    1
32    30    29    1
33    31    29    1
34    32    27    1
35    32    29    1
36    33    32    1
37    34    32    1
@<TRIPOS>SUBSTRUCTURE
1   LIG    1    
 
########## Name        : 1VRT.lig
########## Description : AM1BCC_CHARGES =  -0.0002 ORIGINAL_CHARGES =  -0.0000

@<TRIPOS>MOLECULE
1VRT.lig
34    37    1     0     0    
SMALL
USER_CHARGES
@<TRIPOS>ATOM
1     N1       4.0540  -36.9310   22.2210 N.ar    1  LIG  -0.6650  -0.6200 
2     C1       4.9660  -36.2380   22.9390 C.ar    1  LIG   0.3947   0.1600 
3     H1       6.0082  -36.2811   22.6707 H       1  LIG   0.0281   0.1500 
4     C2       4.6240  -35.4500   24.0360 C.ar    1  LIG  -0.2334  -0.1500 
5     H2       5.3884  -34.9151   24.5740 H       1  LIG   0.1480   0.1500 
6     C3       3.3050  -35.3690   24.4150 C.ar    1  LIG  -0.0698  -0.1435 
7     C4       2.3460  -36.0770   23.6860 C.ar    1  LIG  -0.0398   0.1170 
8     N2       0.9890  -36.0280   24.1030 N.am    1  LIG  -0.4596  -0.5470 
9     H3       0.7643  -35.9928   25.0860 H       1  LIG   0.3311   0.3700 
10    C5      -0.1450  -36.0180   23.4080 C.2     1  LIG   0.7361   0.5438 
11    C6      -0.1190  -36.0770   21.8860 C.ar    1  LIG  -0.2550   0.0862 
12    C7      -1.1230  -35.3990   21.1890 C.ar    1  LIG  -0.0321  -0.1500 
13    H4      -1.7552  -34.6955   21.7041 H       1  LIG   0.1623   0.1500 
14    C8      -1.2960  -35.6300   19.8690 C.ar    1  LIG  -0.2723  -0.1500 
15    H5      -2.0662  -35.1073   19.3273 H       1  LIG   0.1522   0.1500 
16    C9      -0.4670  -36.5450   19.2400 C.ar    1  LIG   0.4373   0.1600 
17    H6      -0.5947  -36.7554   18.1915 H       1  LIG   0.0280   0.1500 
18    N3       0.5220  -37.2120   19.8740 N.ar    1  LIG  -0.6893  -0.6200 
19    C10      0.7040  -36.9790   21.1800 C.ar    1  LIG   0.6480   0.4100 
20    N4       1.7670  -37.6730   21.8260 N.pl3   1  LIG  -0.6924  -0.3690 
21    C11      2.7540  -36.8570   22.5840 C.ar    1  LIG   0.5805   0.4100 
22    C12      2.9040  -34.5090   25.6010 C.3     1  LIG  -0.0620   0.1435 
23    H7       2.2235  -33.7630   25.2820 H       1  LIG   0.0570   0.0000 
24    H8       2.4436  -35.1154   26.3371 H       1  LIG   0.0495   0.0000 
25    H9       3.7654  -34.0491   26.0108 H       1  LIG   0.0519   0.0000 
26    O1      -1.2400  -35.9060   23.9770 O.2     1  LIG  -0.6361  -0.5700 
27    C13      2.3440  -38.7570   21.0360 C.3     1  LIG   0.1354   0.0690 
28    H10      3.1238  -38.3754   20.4296 H       1  LIG   0.0981   0.1000 
29    C14      2.9380  -39.8900   21.8010 C.3     1  LIG  -0.1181  -0.2000 
30    H11      3.8890  -40.1268   21.3997 H       1  LIG   0.0732   0.1000 
31    H12      3.0430  -39.6129   22.8177 H       1  LIG   0.0789   0.1000 
32    C15      1.6390  -40.0610   21.0880 C.3     1  LIG  -0.1196  -0.2000 
33    H13      0.6832  -39.9283   21.5242 H       1  LIG   0.0807   0.1000 
34    H14      1.5292  -40.4423   20.1061 H       1  LIG   0.0733   0.1000 
@<TRIPOS>BOND
1     2     1     ar
2     3     2     1
3     4     2     ar
4     5     4     1
5     6     4     ar
6     7     6     ar
7     8     7     1
8     9     8     1
9     10    8     1
10    11    10    1
11    12    11    ar
12    13    12    1
13    14    12    ar
14    15    14    1
15    16    14    ar
16    17    16    1
17    18    16    ar
18    19    11    ar
19    19    18    ar
20    20    19    1
21    21    1     ar
22    21    7     ar
23    21    20    1
24    22    6     1
25    23    22    1
26    24    22    1
27    25    22    1
28    26    10    2
29    27    20    1
30    28    27    1
31    29    27    1
32    30    29    1
33    31    29    1
34    32    27    1
35    32    29    1
36    33    32    1
37    34    32    1
@<TRIPOS>SUBSTRUCTURE
1   LIG    1    
 
########## Name        : 1VRT.lig
########## Description : AM1BCC_CHARGES =  -0.0002 ORIGINAL_CHARGES =  -0.0000

@<TRIPOS>MOLECULE
1VRT.lig
34    37    1     0     0    
SMALL
USER_CHARGES
@<TRIPOS>ATOM
1     N1       4.0540  -36.9310   22.2210 N.ar    1  LIG  -0.6650  -0.6200 
2     C1       4.9660  -36.2380   22.9390 C.ar    1  LIG   0.3947   0.1600 
3     H1       6.0082  -36.2811   22.6707 H       1  LIG   0.0281   0.1500 
4     C2       4.6240  -35.4500   24.0360 C.ar    1  LIG  -0.2334  -0.1500 
5     H2       5.3884  -34.9151   24.5740 H       1  LIG   0.1480   0.1500 
6     C3       3.3050  -35.3690   24.4150 C.ar    1  LIG  -0.0698  -0.1435 
7     C4       2.3460  -36.0770   23.6860 C.ar    1  LIG  -0.0398   0.1170 
8     N2       0.9890  -36.0280   24.1030 N.am    1  LIG  -0.4596  -0.5470 
9     H3       0.7643  -35.9928   25.0860 H       1  LIG   0.3311   0.3700 
10    C5      -0.1450  -36.0180   23.4080 C.2     1  LIG   0.7361   0.5438 
11    C6      -0.1190  -36.0770   21.8860 C.ar    1  LIG  -0.2550   0.0862 
12    C7      -1.1230  -35.3990   21.1890 C.ar    1  LIG  -0.0321  -0.1500 
13    H4      -1.7552  -34.6955   21.7041 H       1  LIG   0.1623   0.1500 
14    C8      -1.2960  -35.6300   19.8690 C.ar    1  LIG  -0.2723  -0.1500 
15    H5      -2.0662  -35.1073   19.3273 H       1  LIG   0.1522   0.1500 
16    C9      -0.4670  -36.5450   19.2400 C.ar    1  LIG   0.4373   0.1600 
17    H6      -0.5947  -36.7554   18.1915 H       1  LIG   0.0280   0.1500 
18    N3       0.5220  -37.2120   19.8740 N.ar    1  LIG  -0.6893  -0.6200 
19    C10      0.7040  -36.9790   21.1800 C.ar    1  LIG   0.6480   0.4100 
20    N4       1.7670  -37.6730   21.8260 N.pl3   1  LIG  -0.6924  -0.3690 
21    C11      2.7540  -36.8570   22.5840 C.ar    1  LIG   0.5805   0.4100 
22    C12      2.9040  -34.5090   25.6010 C.3     1  LIG  -0.0620   0.1435 
23    H7       2.2235  -33.7630   25.2820 H       1  LIG   0.0570   0.0000 
24    H8       2.4436  -35.1154   26.3371 H       1  LIG   0.0495   0.0000 
25    H9       3.7654  -34.0491   26.0108 H       1  LIG   0.0519   0.0000 
26    O1      -1.2400  -35.9060   23.9770 O.2     1  LIG  -0.6361  -0.5700 
27    C13      2.3440  -38.7570   21.0360 C.3     1  LIG   0.1354   0.0690 
28    H10      3.1238  -38.3754   20.4296 H       1  LIG   0.0981   0.1000 
29    C14      2.9380  -39.8900   21.8010 C.3     1  LIG  -0.1181  -0.2000 
30    H11      3.8890  -40.1268   21.3997 H       1  LIG   0.0732   0.1000 
31    H12      3.0430  -39.6129   22.8177 H       1  LIG   0.0789   0.1000 
32    C15      1.6390  -40.0610   21.0880 C.3     1  LIG  -0.1196  -0.2000 
33    H13      0.6832  -39.9283   21.5242 H       1  LIG   0.0807   0.1000 
34    H14      1.5292  -40.4423   20.1061 H       1  LIG   0.0733   0.1000 
@<TRIPOS>BOND
1     2     1     ar
2     3     2     1
3     4     2     ar
4     5     4     1
5     6     4     ar
6     7     6     ar
7     8     7     1
8     9     8     1
9     10    8     1
10    11    10    1
11    12    11    ar
12    13    12    1
13    14    12    ar
14    15    14    1
15    16    14    ar
16    17    16    1
17    18    16    ar
18    19    11    ar
19    19    18    ar
20    20    19    1
21    21    1     ar
22    21    7     ar
23    21    20    1
24    22    6     1
25    23    22    1
26    24    22    1
27    25    22    1
28    26    10    2
29    27    20    1
30    28    27    1
31    29    27    1
32    30    29    1
33    31    29    1
34    32    27    1
35    32    29    1
36    33    32    1
37    34    32    1
@<TRIPOS>SUBSTRUCTURE
1   LIG    1    
 
########## Name        : 1VRT.lig
########## Description : AM1BCC_CHARGES =  -0.0002 ORIGINAL_CHARGES =  -0.0000

@<TRIPOS>MOLECULE
1VRT.lig
34    37    1     0     0    
SMALL
USER_CHARGES
@<TRIPOS>ATOM
1     N1       4.0540  -36.9310   22.2210 N.ar    1  LIG  -0.6650  -0.6200 
2     C1       4.9660  -36.2380   22.9390 C.ar    1  LIG   0.3947   0.1600 
3     H1       6.0082  -36.2811   22.6707 H       1  LIG   0.0281   0.1500 
4     C2       4.6240  -35.4500   24.0360 C.ar    1  LIG  -0.2334  -0.1500 
5     H2       5.3884  -34.9151   24.5740 H       1  LIG   0.1480   0.1500 
6     C3       3.3050  -35.3690   24.4150 C.ar    1  LIG  -0.0698  -0.1435 
7     C4       2.3460  -36.0770   23.6860 C.ar    1  LIG  -0.0398   0.1170 
8     N2       0.9890  -36.0280   24.1030 N.am    1  LIG  -0.4596  -0.5470 
9     H3       0.7643  -35.9928   25.0860 H       1  LIG   0.3311   0.3700 
10    C5      -0.1450  -36.0180   23.4080 C.2     1  LIG   0.7361   0.5438 
11    C6      -0.1190  -36.0770   21.8860 C.ar    1  LIG  -0.2550   0.0862 
12    C7      -1.1230  -35.3990   21.1890 C.ar    1  LIG  -0.0321  -0.1500 
13    H4      -1.7552  -34.6955   21.7041 H       1  LIG   0.1623   0.1500 
14    C8      -1.2960  -35.6300   19.8690 C.ar    1  LIG  -0.2723  -0.1500 
15    H5      -2.0662  -35.1073   19.3273 H       1  LIG   0.1522   0.1500 
16    C9      -0.4670  -36.5450   19.2400 C.ar    1  LIG   0.4373   0.1600 
17    H6      -0.5947  -36.7554   18.1915 H       1  LIG   0.0280   0.1500 
18    N3       0.5220  -37.2120   19.8740 N.ar    1  LIG  -0.6893  -0.6200 
19    C10      0.7040  -36.9790   21.1800 C.ar    1  LIG   0.6480   0.4100 
20    N4       1.7670  -37.6730   21.8260 N.pl3   1  LIG  -0.6924  -0.3690 
21    C11      2.7540  -36.8570   22.5840 C.ar    1  LIG   0.5805   0.4100 
22    C12      2.9040  -34.5090   25.6010 C.3     1  LIG  -0.0620   0.1435 
23    H7       2.2235  -33.7630   25.2820 H       1  LIG   0.0570   0.0000 
24    H8       2.4436  -35.1154   26.3371 H       1  LIG   0.0495   0.0000 
25    H9       3.7654  -34.0491   26.0108 H       1  LIG   0.0519   0.0000 
26    O1      -1.2400  -35.9060   23.9770 O.2     1  LIG  -0.6361  -0.5700 
27    C13      2.3440  -38.7570   21.0360 C.3     1  LIG   0.1354   0.0690 
28    H10      3.1238  -38.3754   20.4296 H       1  LIG   0.0981   0.1000 
29    C14      2.9380  -39.8900   21.8010 C.3     1  LIG  -0.1181  -0.2000 
30    H11      3.8890  -40.1268   21.3997 H       1  LIG   0.0732   0.1000 
31    H12      3.0430  -39.6129   22.8177 H       1  LIG   0.0789   0.1000 
32    C15      1.6390  -40.0610   21.0880 C.3     1  LIG  -0.1196  -0.2000 
33    H13      0.6832  -39.9283   21.5242 H       1  LIG   0.0807   0.1000 
34    H14      1.5292  -40.4423   20.1061 H       1  LIG   0.0733   0.1000 
@<TRIPOS>BOND
1     2     1     ar
2     3     2     1
3     4     2     ar
4     5     4     1
5     6     4     ar
6     7     6     ar
7     8     7     1
8     9     8     1
9     10    8     1
10    11    10    1
11    12    11    ar
12    13    12    1
13    14    12    ar
14    15    14    1
15    16    14    ar
16    17    16    1
17    18    16    ar
18    19    11    ar
19    19    18    ar
20    20    19    1
21    21    1     ar
22    21    7     ar
23    21    20    1
24    22    6     1
25    23    22    1
26    24    22    1
27    25    22    1
28    26    10    2
29    27    20    1
30    28    27    1
31    29    27    1
32    30    29    1
33    31    29    1
34    32    27    1
35    32    29    1
36    33    32    1
37    34    32    1
@<TRIPOS>SUBSTRUCTURE
1   LIG    1    
 
########## Name        : 1VRT.lig
########## Description : AM1BCC_CHARGES =  -0.0002 ORIGINAL_CHARGES =  -0.0000

@<TRIPOS>MOLECULE
1VRT.lig
34    37    1     0     0    
SMALL
USER_CHARGES
@<TRIPOS>ATOM
1     N1       4.0540  -36.9310   22.2210 N.ar    1  LIG  -0.6650  -0.6200 
2     C1       4.9660  -36.2380   22.9390 C.ar    1  LIG   0.3947   0.1600 
3     H1       6.0082  -36.2811   22.6707 H       1  LIG   0.0281   0.1500 
4     C2       4.6240  -35.4500   24.0360 C.ar    1  LIG  -0.2334  -0.1500 
5     H2       5.3884  -34.9151   24.5740 H       1  LIG   0.1480   0.1500 
6     C3       3.3050  -35.3690   24.4150 C.ar    1  LIG  -0.0698  -0.1435 
7     C4       2.3460  -36.0770   23.6860 C.ar    1  LIG  -0.0398   0.1170 
8     N2       0.9890  -36.0280   24.1030 N.am    1  LIG  -0.4596  -0.5470 
9     H3       0.7643  -35.9928   25.0860 H       1  LIG   0.3311   0.3700 
10    C5      -0.1450  -36.0180   23.4080 C.2     1  LIG   0.7361   0.5438 
11    C6      -0.1190  -36.0770   21.8860 C.ar    1  LIG  -0.2550   0.0862 
12    C7      -1.1230  -35.3990   21.1890 C.ar    1  LIG  -0.0321  -0.1500 
13    H4      -1.7552  -34.6955   21.7041 H       1  LIG   0.1623   0.1500 
14    C8      -1.2960  -35.6300   19.8690 C.ar    1  LIG  -0.2723  -0.1500 
15    H5      -2.0662  -35.1073   19.3273 H       1  LIG   0.1522   0.1500 
16    C9      -0.4670  -36.5450   19.2400 C.ar    1  LIG   0.4373   0.1600 
17    H6      -0.5947  -36.7554   18.1915 H       1  LIG   0.0280   0.1500 
18    N3       0.5220  -37.2120   19.8740 N.ar    1  LIG  -0.6893  -0.6200 
19    C10      0.7040  -36.9790   21.1800 C.ar    1  LIG   0.6480   0.4100 
20    N4       1.7670  -37.6730   21.8260 N.pl3   1  LIG  -0.6924  -0.3690 
21    C11      2.7540  -36.8570   22.5840 C.ar    1  LIG   0.5805   0.4100 
22    C12      2.9040  -34.5090   25.6010 C.3     1  LIG  -0.0620   0.1435 
23    H7       2.2235  -33.7630   25.2820 H       1  LIG   0.0570   0.0000 
24    H8       2.4436  -35.1154   26.3371 H       1  LIG   0.0495   0.0000 
25    H9       3.7654  -34.0491   26.0108 H       1  LIG   0.0519   0.0000 
26    O1      -1.2400  -35.9060   23.9770 O.2     1  LIG  -0.6361  -0.5700 
27    C13      2.3440  -38.7570   21.0360 C.3     1  LIG   0.1354   0.0690 
28    H10      3.1238  -38.3754   20.4296 H       1  LIG   0.0981   0.1000 
29    C14      2.9380  -39.8900   21.8010 C.3     1  LIG  -0.1181  -0.2000 
30    H11      3.8890  -40.1268   21.3997 H       1  LIG   0.0732   0.1000 
31    H12      3.0430  -39.6129   22.8177 H       1  LIG   0.0789   0.1000 
32    C15      1.6390  -40.0610   21.0880 C.3     1  LIG  -0.1196  -0.2000 
33    H13      0.6832  -39.9283   21.5242 H       1  LIG   0.0807   0.1000 
34    H14      1.5292  -40.4423   20.1061 H       1  LIG   0.0733   0.1000 
@<TRIPOS>BOND
1     2     1     ar
2     3     2     1
3     4     2     ar
4     5     4     1
5     6     4     ar
6     7     6     ar
7     8     7     1
8     9     8     1
9     10    8     1
10    11    10    1
11    12    11    ar
12    13    12    1
13    14    12    ar
14    15    14    1
15    16    14    ar
16    17    16    1
17    18    16    ar
18    19    11    ar
19    19    18    ar
20    20    19    1
21    21    1     ar
22    21    7     ar
23    21    20    1
24    22    6     1
25    23    22    1
26    24    22    1
27    25    22    1
28    26    10    2
29    27    20    1
30    28    27    1
31    29    27    1
32    30    29    1
33    31    29    1
34    32    27    1
35    32    29    1
36    33    32    1
37    34    32    1
@<TRIPOS>SUBSTRUCTURE
1   LIG    1    
 
########## Name        : 1VRT.lig
########## Description : AM1BCC_CHARGES =  -0.0002 ORIGINAL_CHARGES =  -0.0000

@<TRIPOS>MOLECULE
1VRT.lig
34    37    1     0     0    
SMALL
USER_CHARGES
@<TRIPOS>ATOM
1     N1       4.0540  -36.9310   22.2210 N.ar    1  LIG  -0.6650  -0.6200 
2     C1       4.9660  -36.2380   22.9390 C.ar    1  LIG   0.3947   0.1600 
3     H1       6.0082  -36.2811   22.6707 H       1  LIG   0.0281   0.1500 
4     C2       4.6240  -35.4500   24.0360 C.ar    1  LIG  -0.2334  -0.1500 
5     H2       5.3884  -34.9151   24.5740 H       1  LIG   0.1480   0.1500 
6     C3       3.3050  -35.3690   24.4150 C.ar    1  LIG  -0.0698  -0.1435 
7     C4       2.3460  -36.0770   23.6860 C.ar    1  LIG  -0.0398   0.1170 
8     N2       0.9890  -36.0280   24.1030 N.am    1  LIG  -0.4596  -0.5470 
9     H3       0.7643  -35.9928   25.0860 H       1  LIG   0.3311   0.3700 
10    C5      -0.1450  -36.0180   23.4080 C.2     1  LIG   0.7361   0.5438 
11    C6      -0.1190  -36.0770   21.8860 C.ar    1  LIG  -0.2550   0.0862 
12    C7      -1.1230  -35.3990   21.1890 C.ar    1  LIG  -0.0321  -0.1500 
13    H4      -1.7552  -34.6955   21.7041 H       1  LIG   0.1623   0.1500 
14    C8      -1.2960  -35.6300   19.8690 C.ar    1  LIG  -0.2723  -0.1500 
15    H5      -2.0662  -35.1073   19.3273 H       1  LIG   0.1522   0.1500 
16    C9      -0.4670  -36.5450   19.2400 C.ar    1  LIG   0.4373   0.1600 
17    H6      -0.5947  -36.7554   18.1915 H       1  LIG   0.0280   0.1500 
18    N3       0.5220  -37.2120   19.8740 N.ar    1  LIG  -0.6893  -0.6200 
19    C10      0.7040  -36.9790   21.1800 C.ar    1  LIG   0.6480   0.4100 
20    N4       1.7670  -37.6730   21.8260 N.pl3   1  LIG  -0.6924  -0.3690 
21    C11      2.7540  -36.8570   22.5840 C.ar    1  LIG   0.5805   0.4100 
22    C12      2.9040  -34.5090   25.6010 C.3     1  LIG  -0.0620   0.1435 
23    H7       2.2235  -33.7630   25.2820 H       1  LIG   0.0570   0.0000 
24    H8       2.4436  -35.1154   26.3371 H       1  LIG   0.0495   0.0000 
25    H9       3.7654  -34.0491   26.0108 H       1  LIG   0.0519   0.0000 
26    O1      -1.2400  -35.9060   23.9770 O.2     1  LIG  -0.6361  -0.5700 
27    C13      2.3440  -38.7570   21.0360 C.3     1  LIG   0.1354   0.0690 
28    H10      3.1238  -38.3754   20.4296 H       1  LIG   0.0981   0.1000 
29    C14      2.9380  -39.8900   21.8010 C.3     1  LIG  -0.1181  -0.2000 
30    H11      3.8890  -40.1268   21.3997 H       1  LIG   0.0732   0.1000 
31    H12      3.0430  -39.6129   22.8177 H       1  LIG   0.0789   0.1000 
32    C15      1.6390  -40.0610   21.0880 C.3     1  LIG  -0.1196  -0.2000 
33    H13      0.6832  -39.9283   21.5242 H       1  LIG   0.0807   0.1000 
34    H14      1.5292  -40.4423   20.1061 H       1  LIG   0.0733   0.1000 
@<TRIPOS>BOND
1     2     1     ar
2     3     2     1
3     4     2     ar
4     5     4     1
5     6     4     ar
6     7     6     ar
7     8     7     1
8     9     8     1
9     10    8     1
10    11    10    1
11    12    11    ar
12    13    12    1
13    14    12    ar
14    15    14    1
15    16    14    ar
16    17    16    1
17    18    16    ar
18    19    11    ar
19    19    18    ar
20    20    19    1
21    21    1     ar
22    21    7     ar
23    21    20    1
24    22    6     1
25    23    22    1
26    24    22    1
27    25    22    1
28    26    10    2
29    27    20    1
30    28    27    1
31    29    27    1
32    30    29    1
33    31    29    1
34    32    27    1
35    32    29    1
36    33    32    1
37    34    32    1
@<TRIPOS>SUBSTRUCTURE
1   LIG    1    
 
########## Name        : 1VRT.lig
########## Description : AM1BCC_CHARGES =  -0.0002 ORIGINAL_CHARGES =  -0.0000

@<TRIPOS>MOLECULE
1VRT.lig
34    37    1     0     0    
SMALL
USER_CHARGES
@<TRIPOS>ATOM
1     N1       4.0540  -36.9310   22.2210 N.ar    1  LIG  -0.6650  -0.6200 
2     C1       4.9660  -36.2380   22.9390 C.ar    1  LIG   0.3947   0.1600 
3     H1       6.0082  -36.2811   22.6707 H       1  LIG   0.0281   0.1500 
4     C2       4.6240  -35.4500   24.0360 C.ar    1  LIG  -0.2334  -0.1500 
5     H2       5.3884  -34.9151   24.5740 H       1  LIG   0.1480   0.1500 
6     C3       3.3050  -35.3690   24.4150 C.ar    1  LIG  -0.0698  -0.1435 
7     C4       2.3460  -36.0770   23.6860 C.ar    1  LIG  -0.0398   0.1170 
8     N2       0.9890  -36.0280   24.1030 N.am    1  LIG  -0.4596  -0.5470 
9     H3       0.7643  -35.9928   25.0860 H       1  LIG   0.3311   0.3700 
10    C5      -0.1450  -36.0180   23.4080 C.2     1  LIG   0.7361   0.5438 
11    C6      -0.1190  -36.0770   21.8860 C.ar    1  LIG  -0.2550   0.0862 
12    C7      -1.1230  -35.3990   21.1890 C.ar    1  LIG  -0.0321  -0.1500 
13    H4      -1.7552  -34.6955   21.7041 H       1  LIG   0.1623   0.1500 
14    C8      -1.2960  -35.6300   19.8690 C.ar    1  LIG  -0.2723  -0.1500 
15    H5      -2.0662  -35.1073   19.3273 H       1  LIG   0.1522   0.1500 
16    C9      -0.4670  -36.5450   19.2400 C.ar    1  LIG   0.4373   0.1600 
17    H6      -0.5947  -36.7554   18.1915 H       1  LIG   0.0280   0.1500 
18    N3       0.5220  -37.2120   19.8740 N.ar    1  LIG  -0.6893  -0.6200 
19    C10      0.7040  -36.9790   21.1800 C.ar    1  LIG   0.6480   0.4100 
20    N4       1.7670  -37.6730   21.8260 N.pl3   1  LIG  -0.6924  -0.3690 
21    C11      2.7540  -36.8570   22.5840 C.ar    1  LIG   0.5805   0.4100 
22    C12      2.9040  -34.5090   25.6010 C.3     1  LIG  -0.0620   0.1435 
23    H7       2.2235  -33.7630   25.2820 H       1  LIG   0.0570   0.0000 
24    H8       2.4436  -35.1154   26.3371 H       1  LIG   0.0495   0.0000 
25    H9       3.7654  -34.0491   26.0108 H       1  LIG   0.0519   0.0000 
26    O1      -1.2400  -35.9060   23.9770 O.2     1  LIG  -0.6361  -0.5700 
27    C13      2.3440  -38.7570   21.0360 C.3     1  LIG   0.1354   0.0690 
28    H10      3.1238  -38.3754   20.4296 H       1  LIG   0.0981   0.1000 
29    C14      2.9380  -39.8900   21.8010 C.3     1  LIG  -0.1181  -0.2000 
30    H11      3.8890  -40.1268   21.3997 H       1  LIG   0.0732   0.1000 
31    H12      3.0430  -39.6129   22.8177 H       1  LIG   0.0789   0.1000 
32    C15      1.6390  -40.0610   21.0880 C.3     1  LIG  -0.1196  -0.2000 
33    H13      0.6832  -39.9283   21.5242 H       1  LIG   0.0807   0.1000 
34    H14      1.5292  -40.4423   20.1061 H       1  LIG   0.0733   0.1000 
@<TRIPOS>BOND
1     2     1     ar
2     3     2     1
3     4     2     ar
4     5     4     1
5     6     4     ar
6     7     6     ar
7     8     7     1
8     9     8     1
9     10    8     1
10    11    10    1
11    12    11    ar
12    13    12    1
13    14    12    ar
14    15    14    1
15    16    14    ar
16    17    16    1
17    18    16    ar
18    19    11    ar
19    19    18    ar
20    20    19    1
21    21    1     ar
22    21    7     ar
23    21    20    1
24    22    6     1
25    23    22    1
26    24    22    1
27    25    22    1
28    26    10    2
29    27    20    1
30    28    27    1
31    29    27    1
32    30    29    1
33    31    29    1
34    32    27    1
35    32    29    1
36    33    32    1
37    34    32    1
@<TRIPOS>SUBSTRUCTURE
1   LIG    1    
 
########## Name        : 1VRT.lig
########## Description : AM1BCC_CHARGES =  -0.0002 ORIGINAL_CHARGES =  -0.0000

@<TRIPOS>MOLECULE
1VRT.lig
34    37    1     0     0    
SMALL
USER_CHARGES
@<TRIPOS>ATOM
1     N1       4.0540  -36.9310   22.2210 N.ar    1  LIG  -0.6650  -0.6200 
2     C1       4.9660  -36.2380   22.9390 C.ar    1  LIG   0.3947   0.1600 
3     H1       6.0082  -36.2811   22.6707 H       1  LIG   0.0281   0.1500 
4     C2       4.6240  -35.4500   24.0360 C.ar    1  LIG  -0.2334  -0.1500 
5     H2       5.3884  -34.9151   24.5740 H       1  LIG   0.1480   0.1500 
6     C3       3.3050  -35.3690   24.4150 C.ar    1  LIG  -0.0698  -0.1435 
7     C4       2.3460  -36.0770   23.6860 C.ar    1  LIG  -0.0398   0.1170 
8     N2       0.9890  -36.0280   24.1030 N.am    1  LIG  -0.4596  -0.5470 
9     H3       0.7643  -35.9928   25.0860 H       1  LIG   0.3311   0.3700 
10    C5      -0.1450  -36.0180   23.4080 C.2     1  LIG   0.7361   0.5438 
11    C6      -0.1190  -36.0770   21.8860 C.ar    1  LIG  -0.2550   0.0862 
12    C7      -1.1230  -35.3990   21.1890 C.ar    1  LIG  -0.0321  -0.1500 
13    H4      -1.7552  -34.6955   21.7041 H       1  LIG   0.1623   0.1500 
14    C8      -1.2960  -35.6300   19.8690 C.ar    1  LIG  -0.2723  -0.1500 
15    H5      -2.0662  -35.1073   19.3273 H       1  LIG   0.1522   0.1500 
16    C9      -0.4670  -36.5450   19.2400 C.ar    1  LIG   0.4373   0.1600 
17    H6      -0.5947  -36.7554   18.1915 H       1  LIG   0.0280   0.1500 
18    N3       0.5220  -37.2120   19.8740 N.ar    1  LIG  -0.6893  -0.6200 
19    C10      0.7040  -36.9790   21.1800 C.ar    1  LIG   0.6480   0.4100 
20    N4       1.7670  -37.6730   21.8260 N.pl3   1  LIG  -0.6924  -0.3690 
21    C11      2.7540  -36.8570   22.5840 C.ar    1  LIG   0.5805   0.4100 
22    C12      2.9040  -34.5090   25.6010 C.3     1  LIG  -0.0620   0.1435 
23    H7       2.2235  -33.7630   25.2820 H       1  LIG   0.0570   0.0000 
24    H8       2.4436  -35.1154   26.3371 H       1  LIG   0.0495   0.0000 
25    H9       3.7654  -34.0491   26.0108 H       1  LIG   0.0519   0.0000 
26    O1      -1.2400  -35.9060   23.9770 O.2     1  LIG  -0.6361  -0.5700 
27    C13      2.3440  -38.7570   21.0360 C.3     1  LIG   0.1354   0.0690 
28    H10      3.1238  -38.3754   20.4296 H       1  LIG   0.0981   0.1000 
29    C14      2.9380  -39.8900   21.8010 C.3     1  LIG  -0.1181  -0.2000 
30    H11      3.8890  -40.1268   21.3997 H       1  LIG   0.0732   0.1000 
31    H12      3.0430  -39.6129   22.8177 H       1  LIG   0.0789   0.1000 
32    C15      1.6390  -40.0610   21.0880 C.3     1  LIG  -0.1196  -0.2000 
33    H13      0.6832  -39.9283   21.5242 H       1  LIG   0.0807   0.1000 
34    H14      1.5292  -40.4423   20.1061 H       1  LIG   0.0733   0.1000 
@<TRIPOS>BOND
1     2     1     ar
2     3     2     1
3     4     2     ar
4     5     4     1
5     6     4     ar
6     7     6     ar
7     8     7     1
8     9     8     1
9     10    8     1
10    11    10    1
11    12    11    ar
12    13    12    1
13    14    12    ar
14    15    14    1
15    16    14    ar
16    17    16    1
17    18    16    ar
18    19    11    ar
19    19    18    ar
20    20    19    1
21    21    1     ar
22    21    7     ar
23    21    20    1
24    22    6     1
25    23    22    1
26    24    22    1
27    25    22    1
28    26    10    2
29    27    20    1
30    28    27    1
31    29    27    1
32    30    29    1
33    31    29    1
34    32    27    1
35    32    29    1
36    33    32    1
37    34    32    1
@<TRIPOS>SUBSTRUCTURE
1   LIG    1    
 
########## Name        : 1VRT.lig
########## Description : AM1BCC_CHARGES =  -0.0002 ORIGINAL_CHARGES =  -0.0000

@<TRIPOS>MOLECULE
1VRT.lig
34    37    1     0     0    
SMALL
USER_CHARGES
@<TRIPOS>ATOM
1     N1       4.0540  -36.9310   22.2210 N.ar    1  LIG  -0.6650  -0.6200 
2     C1       4.9660  -36.2380   22.9390 C.ar    1  LIG   0.3947   0.1600 
3     H1       6.0082  -36.2811   22.6707 H       1  LIG   0.0281   0.1500 
4     C2       4.6240  -35.4500   24.0360 C.ar    1  LIG  -0.2334  -0.1500 
5     H2       5.3884  -34.9151   24.5740 H       1  LIG   0.1480   0.1500 
6     C3       3.3050  -35.3690   24.4150 C.ar    1  LIG  -0.0698  -0.1435 
7     C4       2.3460  -36.0770   23.6860 C.ar    1  LIG  -0.0398   0.1170 
8     N2       0.9890  -36.0280   24.1030 N.am    1  LIG  -0.4596  -0.5470 
9     H3       0.7643  -35.9928   25.0860 H       1  LIG   0.3311   0.3700 
10    C5      -0.1450  -36.0180   23.4080 C.2     1  LIG   0.7361   0.5438 
11    C6      -0.1190  -36.0770   21.8860 C.ar    1  LIG  -0.2550   0.0862 
12    C7      -1.1230  -35.3990   21.1890 C.ar    1  LIG  -0.0321  -0.1500 
13    H4      -1.7552  -34.6955   21.7041 H       1  LIG   0.1623   0.1500 
14    C8      -1.2960  -35.6300   19.8690 C.ar    1  LIG  -0.2723  -0.1500 
15    H5      -2.0662  -35.1073   19.3273 H       1  LIG   0.1522   0.1500 
16    C9      -0.4670  -36.5450   19.2400 C.ar    1  LIG   0.4373   0.1600 
17    H6      -0.5947  -36.7554   18.1915 H       1  LIG   0.0280   0.1500 
18    N3       0.5220  -37.2120   19.8740 N.ar    1  LIG  -0.6893  -0.6200 
19    C10      0.7040  -36.9790   21.1800 C.ar    1  LIG   0.6480   0.4100 
20    N4       1.7670  -37.6730   21.8260 N.pl3   1  LIG  -0.6924  -0.3690 
21    C11      2.7540  -36.8570   22.5840 C.ar    1  LIG   0.5805   0.4100 
22    C12      2.9040  -34.5090   25.6010 C.3     1  LIG  -0.0620   0.1435 
23    H7       2.2235  -33.7630   25.2820 H       1  LIG   0.0570   0.0000 
24    H8       2.4436  -35.1154   26.3371 H       1  LIG   0.0495   0.0000 
25    H9       3.7654  -34.0491   26.0108 H       1  LIG   0.0519   0.0000 
26    O1      -1.2400  -35.9060   23.9770 O.2     1  LIG  -0.6361  -0.5700 
27    C13      2.3440  -38.7570   21.0360 C.3     1  LIG   0.1354   0.0690 
28    H10      3.1238  -38.3754   20.4296 H       1  LIG   0.0981   0.1000 
29    C14      2.9380  -39.8900   21.8010 C.3     1  LIG  -0.1181  -0.2000 
30    H11      3.8890  -40.1268   21.3997 H       1  LIG   0.0732   0.1000 
31    H12      3.0430  -39.6129   22.8177 H       1  LIG   0.0789   0.1000 
32    C15      1.6390  -40.0610   21.0880 C.3     1  LIG  -0.1196  -0.2000 
33    H13      0.6832  -39.9283   21.5242 H       1  LIG   0.0807   0.1000 
34    H14      1.5292  -40.4423   20.1061 H       1  LIG   0.0733   0.1000 
@<TRIPOS>BOND
1     2     1     ar
2     3     2     1
3     4     2     ar
4     5     4     1
5     6     4     ar
6     7     6     ar
7     8     7     1
8     9     8     1
9     10    8     1
10    11    10    1
11    12    11    ar
12    13    12    1
13    14    12    ar
14    15    14    1
15    16    14    ar
16    17    16    1
17    18    16    ar
18    19    11    ar
19    19    18    ar
20    20    19    1
21    21    1     ar
22    21    7     ar
23    21    20    1
24    22    6     1
25    23    22    1
26    24    22    1
27    25    22    1
28    26    10    2
29    27    20    1
30    28    27    1
31    29    27    1
32    30    29    1
33    31    29    1
34    32    27    1
35    32    29    1
36    33    32    1
37    34    32    1
@<TRIPOS>SUBSTRUCTURE
1   LIG    1    
 
########## Name        : 1VRT.lig
########## Description : AM1BCC_CHARGES =  -0.0002 ORIGINAL_CHARGES =  -0.0000

@<TRIPOS>MOLECULE
1VRT.lig
34    37    1     0     0    
SMALL
USER_CHARGES
@<TRIPOS>ATOM
1     N1       4.0540  -36.9310   22.2210 N.ar    1  LIG  -0.6650  -0.6200 
2     C1       4.9660  -36.2380   22.9390 C.ar    1  LIG   0.3947   0.1600 
3     H1       6.0082  -36.2811   22.6707 H       1  LIG   0.0281   0.1500 
4     C2       4.6240  -35.4500   24.0360 C.ar    1  LIG  -0.2334  -0.1500 
5     H2       5.3884  -34.9151   24.5740 H       1  LIG   0.1480   0.1500 
6     C3       3.3050  -35.3690   24.4150 C.ar    1  LIG  -0.0698  -0.1435 
7     C4       2.3460  -36.0770   23.6860 C.ar    1  LIG  -0.0398   0.1170 
8     N2       0.9890  -36.0280   24.1030 N.am    1  LIG  -0.4596  -0.5470 
9     H3       0.7643  -35.9928   25.0860 H       1  LIG   0.3311   0.3700 
10    C5      -0.1450  -36.0180   23.4080 C.2     1  LIG   0.7361   0.5438 
11    C6      -0.1190  -36.0770   21.8860 C.ar    1  LIG  -0.2550   0.0862 
12    C7      -1.1230  -35.3990   21.1890 C.ar    1  LIG  -0.0321  -0.1500 
13    H4      -1.7552  -34.6955   21.7041 H       1  LIG   0.1623   0.1500 
14    C8      -1.2960  -35.6300   19.8690 C.ar    1  LIG  -0.2723  -0.1500 
15    H5      -2.0662  -35.1073   19.3273 H       1  LIG   0.1522   0.1500 
16    C9      -0.4670  -36.5450   19.2400 C.ar    1  LIG   0.4373   0.1600 
17    H6      -0.5947  -36.7554   18.1915 H       1  LIG   0.0280   0.1500 
18    N3       0.5220  -37.2120   19.8740 N.ar    1  LIG  -0.6893  -0.6200 
19    C10      0.7040  -36.9790   21.1800 C.ar    1  LIG   0.6480   0.4100 
20    N4       1.7670  -37.6730   21.8260 N.pl3   1  LIG  -0.6924  -0.3690 
21    C11      2.7540  -36.8570   22.5840 C.ar    1  LIG   0.5805   0.4100 
22    C12      2.9040  -34.5090   25.6010 C.3     1  LIG  -0.0620   0.1435 
23    H7       2.2235  -33.7630   25.2820 H       1  LIG   0.0570   0.0000 
24    H8       2.4436  -35.1154   26.3371 H       1  LIG   0.0495   0.0000 
25    H9       3.7654  -34.0491   26.0108 H       1  LIG   0.0519   0.0000 
26    O1      -1.2400  -35.9060   23.9770 O.2     1  LIG  -0.6361  -0.5700 
27    C13      2.3440  -38.7570   21.0360 C.3     1  LIG   0.1354   0.0690 
28    H10      3.1238  -38.3754   20.4296 H       1  LIG   0.0981   0.1000 
29    C14      2.9380  -39.8900   21.8010 C.3     1  LIG  -0.1181  -0.2000 
30    H11      3.8890  -40.1268   21.3997 H       1  LIG   0.0732   0.1000 
31    H12      3.0430  -39.6129   22.8177 H       1  LIG   0.0789   0.1000 
32    C15      1.6390  -40.0610   21.0880 C.3     1  LIG  -0.1196  -0.2000 
33    H13      0.6832  -39.9283   21.5242 H       1  LIG   0.0807   0.1000 
34    H14      1.5292  -40.4423   20.1061 H       1  LIG   0.0733   0.1000 
@<TRIPOS>BOND
1     2     1     ar
2     3     2     1
3     4     2     ar
4     5     4     1
5     6     4     ar
6     7     6     ar
7     8     7     1
8     9     8     1
9     10    8     1
10    11    10    1
11    12    11    ar
12    13    12    1
13    14    12    ar
14    15    14    1
15    16    14    ar
16    17    16    1
17    18    16    ar
18    19    11    ar
19    19    18    ar
20    20    19    1
21    21    1     ar
22    21    7     ar
23    21    20    1
24    22    6     1
25    23    22    1
26    24    22    1
27    25    22    1
28    26    10    2
29    27    20    1
30    28    27    1
31    29    27    1
32    30    29    1
33    31    29    1
34    32    27    1
35    32    29    1
36    33    32    1
37    34    32    1
@<TRIPOS>SUBSTRUCTURE
1   LIG    1    
 
########## Name        : 1VRT.lig
########## Description : AM1BCC_CHARGES =  -0.0002 ORIGINAL_CHARGES =  -0.0000

@<TRIPOS>MOLECULE
1VRT.lig
34    37    1     0     0    
SMALL
USER_CHARGES
@<TRIPOS>ATOM
1     N1       4.0540  -36.9310   22.2210 N.ar    1  LIG  -0.6650  -0.6200 
2     C1       4.9660  -36.2380   22.9390 C.ar    1  LIG   0.3947   0.1600 
3     H1       6.0082  -36.2811   22.6707 H       1  LIG   0.0281   0.1500 
4     C2       4.6240  -35.4500   24.0360 C.ar    1  LIG  -0.2334  -0.1500 
5     H2       5.3884  -34.9151   24.5740 H       1  LIG   0.1480   0.1500 
6     C3       3.3050  -35.3690   24.4150 C.ar    1  LIG  -0.0698  -0.1435 
7     C4       2.3460  -36.0770   23.6860 C.ar    1  LIG  -0.0398   0.1170 
8     N2       0.9890  -36.0280   24.1030 N.am    1  LIG  -0.4596  -0.5470 
9     H3       0.7643  -35.9928   25.0860 H       1  LIG   0.3311   0.3700 
10    C5      -0.1450  -36.0180   23.4080 C.2     1  LIG   0.7361   0.5438 
11    C6      -0.1190  -36.0770   21.8860 C.ar    1  LIG  -0.2550   0.0862 
12    C7      -1.1230  -35.3990   21.1890 C.ar    1  LIG  -0.0321  -0.1500 
13    H4      -1.7552  -34.6955   21.7041 H       1  LIG   0.1623   0.1500 
14    C8      -1.2960  -35.6300   19.8690 C.ar    1  LIG  -0.2723  -0.1500 
15    H5      -2.0662  -35.1073   19.3273 H       1  LIG   0.1522   0.1500 
16    C9      -0.4670  -36.5450   19.2400 C.ar    1  LIG   0.4373   0.1600 
17    H6      -0.5947  -36.7554   18.1915 H       1  LIG   0.0280   0.1500 
18    N3       0.5220  -37.2120   19.8740 N.ar    1  LIG  -0.6893  -0.6200 
19    C10      0.7040  -36.9790   21.1800 C.ar    1  LIG   0.6480   0.4100 
20    N4       1.7670  -37.6730   21.8260 N.pl3   1  LIG  -0.6924  -0.3690 
21    C11      2.7540  -36.8570   22.5840 C.ar    1  LIG   0.5805   0.4100 
22    C12      2.9040  -34.5090   25.6010 C.3     1  LIG  -0.0620   0.1435 
23    H7       2.2235  -33.7630   25.2820 H       1  LIG   0.0570   0.0000 
24    H8       2.4436  -35.1154   26.3371 H       1  LIG   0.0495   0.0000 
25    H9       3.7654  -34.0491   26.0108 H       1  LIG   0.0519   0.0000 
26    O1      -1.2400  -35.9060   23.9770 O.2     1  LIG  -0.6361  -0.5700 
27    C13      2.3440  -38.7570   21.0360 C.3     1  LIG   0.1354   0.0690 
28    H10      3.1238  -38.3754   20.4296 H       1  LIG   0.0981   0.1000 
29    C14      2.9380  -39.8900   21.8010 C.3     1  LIG  -0.1181  -0.2000 
30    H11      3.8890  -40.1268   21.3997 H       1  LIG   0.0732   0.1000 
31    H12      3.0430  -39.6129   22.8177 H       1  LIG   0.0789   0.1000 
32    C15      1.6390  -40.0610   21.0880 C.3     1  LIG  -0.1196  -0.2000 
33    H13      0.6832  -39.9283   21.5242 H       1  LIG   0.0807   0.1000 
34    H14      1.5292  -40.4423   20.1061 H       1  LIG   0.0733   0.1000 
@<TRIPOS>BOND
1     2     1     ar
2     3     2     1
3     4     2     ar
4     5     4     1
5     6     4     ar
6     7     6     ar
7     8     7     1
8     9     8     1
9     10    8     1
10    11    10    1
11    12    11    ar
12    13    12    1
13    14    12    ar
14    15    14    1
15    16    14    ar
16    17    16    1
17    18    16    ar
18    19    11    ar
19    19    18    ar
20    20    19    1
21    21    1     ar
22    21    7     ar
23    21    20    1
24    22    6     1
25    23    22    1
26    24    22    1
27    25    22    1
28    26    10    2
29    27    20    1
30    28    27    1
31    29    27    1
32    30    29    1
33    31    29    1
34    32    27    1
35    32    29    1
36    33    32    1
37    34    32    1
@<TRIPOS>SUBSTRUCTURE
1   LIG    1    
 
########## Name        : 1VRT.lig
########## Description : AM1BCC_CHARGES =  -0.0002 ORIGINAL_CHARGES =  -0.0000

@<TRIPOS>MOLECULE
1VRT.lig
34    37    1     0     0    
SMALL
USER_CHARGES
@<TRIPOS>ATOM
1     N1       4.0540  -36.9310   22.2210 N.ar    1  LIG  -0.6650  -0.6200 
2     C1       4.9660  -36.2380   22.9390 C.ar    1  LIG   0.3947   0.1600 
3     H1       6.0082  -36.2811   22.6707 H       1  LIG   0.0281   0.1500 
4     C2       4.6240  -35.4500   24.0360 C.ar    1  LIG  -0.2334  -0.1500 
5     H2       5.3884  -34.9151   24.5740 H       1  LIG   0.1480   0.1500 
6     C3       3.3050  -35.3690   24.4150 C.ar    1  LIG  -0.0698  -0.1435 
7     C4       2.3460  -36.0770   23.6860 C.ar    1  LIG  -0.0398   0.1170 
8     N2       0.9890  -36.0280   24.1030 N.am    1  LIG  -0.4596  -0.5470 
9     H3       0.7643  -35.9928   25.0860 H       1  LIG   0.3311   0.3700 
10    C5      -0.1450  -36.0180   23.4080 C.2     1  LIG   0.7361   0.5438 
11    C6      -0.1190  -36.0770   21.8860 C.ar    1  LIG  -0.2550   0.0862 
12    C7      -1.1230  -35.3990   21.1890 C.ar    1  LIG  -0.0321  -0.1500 
13    H4      -1.7552  -34.6955   21.7041 H       1  LIG   0.1623   0.1500 
14    C8      -1.2960  -35.6300   19.8690 C.ar    1  LIG  -0.2723  -0.1500 
15    H5      -2.0662  -35.1073   19.3273 H       1  LIG   0.1522   0.1500 
16    C9      -0.4670  -36.5450   19.2400 C.ar    1  LIG   0.4373   0.1600 
17    H6      -0.5947  -36.7554   18.1915 H       1  LIG   0.0280   0.1500 
18    N3       0.5220  -37.2120   19.8740 N.ar    1  LIG  -0.6893  -0.6200 
19    C10      0.7040  -36.9790   21.1800 C.ar    1  LIG   0.6480   0.4100 
20    N4       1.7670  -37.6730   21.8260 N.pl3   1  LIG  -0.6924  -0.3690 
21    C11      2.7540  -36.8570   22.5840 C.ar    1  LIG   0.5805   0.4100 
22    C12      2.9040  -34.5090   25.6010 C.3     1  LIG  -0.0620   0.1435 
23    H7       2.2235  -33.7630   25.2820 H       1  LIG   0.0570   0.0000 
24    H8       2.4436  -35.1154   26.3371 H       1  LIG   0.0495   0.0000 
25    H9       3.7654  -34.0491   26.0108 H       1  LIG   0.0519   0.0000 
26    O1      -1.2400  -35.9060   23.9770 O.2     1  LIG  -0.6361  -0.5700 
27    C13      2.3440  -38.7570   21.0360 C.3     1  LIG   0.1354   0.0690 
28    H10      3.1238  -38.3754   20.4296 H       1  LIG   0.0981   0.1000 
29    C14      2.9380  -39.8900   21.8010 C.3     1  LIG  -0.1181  -0.2000 
30    H11      3.8890  -40.1268   21.3997 H       1  LIG   0.0732   0.1000 
31    H12      3.0430  -39.6129   22.8177 H       1  LIG   0.0789   0.1000 
32    C15      1.6390  -40.0610   21.0880 C.3     1  LIG  -0.1196  -0.2000 
33    H13      0.6832  -39.9283   21.5242 H       1  LIG   0.0807   0.1000 
34    H14      1.5292  -40.4423   20.1061 H       1  LIG   0.0733   0.1000 
@<TRIPOS>BOND
1     2     1     ar
2     3     2     1
3     4     2     ar
4     5     4     1
5     6     4     ar
6     7     6     ar
7     8     7     1
8     9     8     1
9     10    8     1
10    11    10    1
11    12    11    ar
12    13    12    1
13    14    12    ar
14    15    14    1
15    16    14    ar
16    17    16    1
17    18    16    ar
18    19    11    ar
19    19    18    ar
20    20    19    1
21    21    1     ar
22    21    7     ar
23    21    20    1
24    22    6     1
25    23    22    1
26    24    22    1
27    25    22    1
28    26    10    2
29    27    20    1
30    28    27    1
31    29    27    1
32    30    29    1
33    31    29    1
34    32    27    1
35    32    29    1
36    33    32    1
37    34    32    1
@<TRIPOS>SUBSTRUCTURE
1   LIG    1    
 
########## Name        : 1VRT.lig
########## Description : AM1BCC_CHARGES =  -0.0002 ORIGINAL_CHARGES =  -0.0000

@<TRIPOS>MOLECULE
1VRT.lig
34    37    1     0     0    
SMALL
USER_CHARGES
@<TRIPOS>ATOM
1     N1       4.0540  -36.9310   22.2210 N.ar    1  LIG  -0.6650  -0.6200 
2     C1       4.9660  -36.2380   22.9390 C.ar    1  LIG   0.3947   0.1600 
3     H1       6.0082  -36.2811   22.6707 H       1  LIG   0.0281   0.1500 
4     C2       4.6240  -35.4500   24.0360 C.ar    1  LIG  -0.2334  -0.1500 
5     H2       5.3884  -34.9151   24.5740 H       1  LIG   0.1480   0.1500 
6     C3       3.3050  -35.3690   24.4150 C.ar    1  LIG  -0.0698  -0.1435 
7     C4       2.3460  -36.0770   23.6860 C.ar    1  LIG  -0.0398   0.1170 
8     N2       0.9890  -36.0280   24.1030 N.am    1  LIG  -0.4596  -0.5470 
9     H3       0.7643  -35.9928   25.0860 H       1  LIG   0.3311   0.3700 
10    C5      -0.1450  -36.0180   23.4080 C.2     1  LIG   0.7361   0.5438 
11    C6      -0.1190  -36.0770   21.8860 C.ar    1  LIG  -0.2550   0.0862 
12    C7      -1.1230  -35.3990   21.1890 C.ar    1  LIG  -0.0321  -0.1500 
13    H4      -1.7552  -34.6955   21.7041 H       1  LIG   0.1623   0.1500 
14    C8      -1.2960  -35.6300   19.8690 C.ar    1  LIG  -0.2723  -0.1500 
15    H5      -2.0662  -35.1073   19.3273 H       1  LIG   0.1522   0.1500 
16    C9      -0.4670  -36.5450   19.2400 C.ar    1  LIG   0.4373   0.1600 
17    H6      -0.5947  -36.7554   18.1915 H       1  LIG   0.0280   0.1500 
18    N3       0.5220  -37.2120   19.8740 N.ar    1  LIG  -0.6893  -0.6200 
19    C10      0.7040  -36.9790   21.1800 C.ar    1  LIG   0.6480   0.4100 
20    N4       1.7670  -37.6730   21.8260 N.pl3   1  LIG  -0.6924  -0.3690 
21    C11      2.7540  -36.8570   22.5840 C.ar    1  LIG   0.5805   0.4100 
22    C12      2.9040  -34.5090   25.6010 C.3     1  LIG  -0.0620   0.1435 
23    H7       2.2235  -33.7630   25.2820 H       1  LIG   0.0570   0.0000 
24    H8       2.4436  -35.1154   26.3371 H       1  LIG   0.0495   0.0000 
25    H9       3.7654  -34.0491   26.0108 H       1  LIG   0.0519   0.0000 
26    O1      -1.2400  -35.9060   23.9770 O.2     1  LIG  -0.6361  -0.5700 
27    C13      2.3440  -38.7570   21.0360 C.3     1  LIG   0.1354   0.0690 
28    H10      3.1238  -38.3754   20.4296 H       1  LIG   0.0981   0.1000 
29    C14      2.9380  -39.8900   21.8010 C.3     1  LIG  -0.1181  -0.2000 
30    H11      3.8890  -40.1268   21.3997 H       1  LIG   0.0732   0.1000 
31    H12      3.0430  -39.6129   22.8177 H       1  LIG   0.0789   0.1000 
32    C15      1.6390  -40.0610   21.0880 C.3     1  LIG  -0.1196  -0.2000 
33    H13      0.6832  -39.9283   21.5242 H       1  LIG   0.0807   0.1000 
34    H14      1.5292  -40.4423   20.1061 H       1  LIG   0.0733   0.1000 
@<TRIPOS>BOND
1     2     1     ar
2     3     2     1
3     4     2     ar
4     5     4     1
5     6     4     ar
6     7     6     ar
7     8     7     1
8     9     8     1
9     10    8     1
10    11    10    1
11    12    11    ar
12    13    12    1
13    14    12    ar
14    15    14    1
15    16    14    ar
16    17    16    1
17    18    16    ar
18    19    11    ar
19    19    18    ar
20    20    19    1
21    21    1     ar
22    21    7     ar
23    21    20    1
24    22    6     1
25    23    22    1
26    24    22    1
27    25    22    1
28    26    10    2
29    27    20    1
30    28    27    1
31    29    27    1
32    30    29    1
33    31    29    1
34    32    27    1
35    32    29    1
36    33    32    1
37    34    32    1
@<TRIPOS>SUBSTRUCTURE
1   LIG    1    
 
########## Name        : 1VRT.lig
########## Description : AM1BCC_CHARGES =  -0.0002 ORIGINAL_CHARGES =  -0.0000

@<TRIPOS>MOLECULE
1VRT.lig
34    37    1     0     0    
SMALL
USER_CHARGES
@<TRIPOS>ATOM
1     N1       4.0540  -36.9310   22.2210 N.ar    1  LIG  -0.6650  -0.6200 
2     C1       4.9660  -36.2380   22.9390 C.ar    1  LIG   0.3947   0.1600 
3     H1       6.0082  -36.2811   22.6707 H       1  LIG   0.0281   0.1500 
4     C2       4.6240  -35.4500   24.0360 C.ar    1  LIG  -0.2334  -0.1500 
5     H2       5.3884  -34.9151   24.5740 H       1  LIG   0.1480   0.1500 
6     C3       3.3050  -35.3690   24.4150 C.ar    1  LIG  -0.0698  -0.1435 
7     C4       2.3460  -36.0770   23.6860 C.ar    1  LIG  -0.0398   0.1170 
8     N2       0.9890  -36.0280   24.1030 N.am    1  LIG  -0.4596  -0.5470 
9     H3       0.7643  -35.9928   25.0860 H       1  LIG   0.3311   0.3700 
10    C5      -0.1450  -36.0180   23.4080 C.2     1  LIG   0.7361   0.5438 
11    C6      -0.1190  -36.0770   21.8860 C.ar    1  LIG  -0.2550   0.0862 
12    C7      -1.1230  -35.3990   21.1890 C.ar    1  LIG  -0.0321  -0.1500 
13    H4      -1.7552  -34.6955   21.7041 H       1  LIG   0.1623   0.1500 
14    C8      -1.2960  -35.6300   19.8690 C.ar    1  LIG  -0.2723  -0.1500 
15    H5      -2.0662  -35.1073   19.3273 H       1  LIG   0.1522   0.1500 
16    C9      -0.4670  -36.5450   19.2400 C.ar    1  LIG   0.4373   0.1600 
17    H6      -0.5947  -36.7554   18.1915 H       1  LIG   0.0280   0.1500 
18    N3       0.5220  -37.2120   19.8740 N.ar    1  LIG  -0.6893  -0.6200 
19    C10      0.7040  -36.9790   21.1800 C.ar    1  LIG   0.6480   0.4100 
20    N4       1.7670  -37.6730   21.8260 N.pl3   1  LIG  -0.6924  -0.3690 
21    C11      2.7540  -36.8570   22.5840 C.ar    1  LIG   0.5805   0.4100 
22    C12      2.9040  -34.5090   25.6010 C.3     1  LIG  -0.0620   0.1435 
23    H7       2.2235  -33.7630   25.2820 H       1  LIG   0.0570   0.0000 
24    H8       2.4436  -35.1154   26.3371 H       1  LIG   0.0495   0.0000 
25    H9       3.7654  -34.0491   26.0108 H       1  LIG   0.0519   0.0000 
26    O1      -1.2400  -35.9060   23.9770 O.2     1  LIG  -0.6361  -0.5700 
27    C13      2.3440  -38.7570   21.0360 C.3     1  LIG   0.1354   0.0690 
28    H10      3.1238  -38.3754   20.4296 H       1  LIG   0.0981   0.1000 
29    C14      2.9380  -39.8900   21.8010 C.3     1  LIG  -0.1181  -0.2000 
30    H11      3.8890  -40.1268   21.3997 H       1  LIG   0.0732   0.1000 
31    H12      3.0430  -39.6129   22.8177 H       1  LIG   0.0789   0.1000 
32    C15      1.6390  -40.0610   21.0880 C.3     1  LIG  -0.1196  -0.2000 
33    H13      0.6832  -39.9283   21.5242 H       1  LIG   0.0807   0.1000 
34    H14      1.5292  -40.4423   20.1061 H       1  LIG   0.0733   0.1000 
@<TRIPOS>BOND
1     2     1     ar
2     3     2     1
3     4     2     ar
4     5     4     1
5     6     4     ar
6     7     6     ar
7     8     7     1
8     9     8     1
9     10    8     1
10    11    10    1
11    12    11    ar
12    13    12    1
13    14    12    ar
14    15    14    1
15    16    14    ar
16    17    16    1
17    18    16    ar
18    19    11    ar
19    19    18    ar
20    20    19    1
21    21    1     ar
22    21    7     ar
23    21    20    1
24    22    6     1
25    23    22    1
26    24    22    1
27    25    22    1
28    26    10    2
29    27    20    1
30    28    27    1
31    29    27    1
32    30    29    1
33    31    29    1
34    32    27    1
35    32    29    1
36    33    32    1
37    34    32    1
@<TRIPOS>SUBSTRUCTURE
1   LIG    1    
 
########## Name        : 1VRT.lig
########## Description : AM1BCC_CHARGES =  -0.0002 ORIGINAL_CHARGES =  -0.0000

@<TRIPOS>MOLECULE
1VRT.lig
34    37    1     0     0    
SMALL
USER_CHARGES
@<TRIPOS>ATOM
1     N1       4.0540  -36.9310   22.2210 N.ar    1  LIG  -0.6650  -0.6200 
2     C1       4.9660  -36.2380   22.9390 C.ar    1  LIG   0.3947   0.1600 
3     H1       6.0082  -36.2811   22.6707 H       1  LIG   0.0281   0.1500 
4     C2       4.6240  -35.4500   24.0360 C.ar    1  LIG  -0.2334  -0.1500 
5     H2       5.3884  -34.9151   24.5740 H       1  LIG   0.1480   0.1500 
6     C3       3.3050  -35.3690   24.4150 C.ar    1  LIG  -0.0698  -0.1435 
7     C4       2.3460  -36.0770   23.6860 C.ar    1  LIG  -0.0398   0.1170 
8     N2       0.9890  -36.0280   24.1030 N.am    1  LIG  -0.4596  -0.5470 
9     H3       0.7643  -35.9928   25.0860 H       1  LIG   0.3311   0.3700 
10    C5      -0.1450  -36.0180   23.4080 C.2     1  LIG   0.7361   0.5438 
11    C6      -0.1190  -36.0770   21.8860 C.ar    1  LIG  -0.2550   0.0862 
12    C7      -1.1230  -35.3990   21.1890 C.ar    1  LIG  -0.0321  -0.1500 
13    H4      -1.7552  -34.6955   21.7041 H       1  LIG   0.1623   0.1500 
14    C8      -1.2960  -35.6300   19.8690 C.ar    1  LIG  -0.2723  -0.1500 
15    H5      -2.0662  -35.1073   19.3273 H       1  LIG   0.1522   0.1500 
16    C9      -0.4670  -36.5450   19.2400 C.ar    1  LIG   0.4373   0.1600 
17    H6      -0.5947  -36.7554   18.1915 H       1  LIG   0.0280   0.1500 
18    N3       0.5220  -37.2120   19.8740 N.ar    1  LIG  -0.6893  -0.6200 
19    C10      0.7040  -36.9790   21.1800 C.ar    1  LIG   0.6480   0.4100 
20    N4       1.7670  -37.6730   21.8260 N.pl3   1  LIG  -0.6924  -0.3690 
21    C11      2.7540  -36.8570   22.5840 C.ar    1  LIG   0.5805   0.4100 
22    C12      2.9040  -34.5090   25.6010 C.3     1  LIG  -0.0620   0.1435 
23    H7       2.2235  -33.7630   25.2820 H       1  LIG   0.0570   0.0000 
24    H8       2.4436  -35.1154   26.3371 H       1  LIG   0.0495   0.0000 
25    H9       3.7654  -34.0491   26.0108 H       1  LIG   0.0519   0.0000 
26    O1      -1.2400  -35.9060   23.9770 O.2     1  LIG  -0.6361  -0.5700 
27    C13      2.3440  -38.7570   21.0360 C.3     1  LIG   0.1354   0.0690 
28    H10      3.1238  -38.3754   20.4296 H       1  LIG   0.0981   0.1000 
29    C14      2.9380  -39.8900   21.8010 C.3     1  LIG  -0.1181  -0.2000 
30    H11      3.8890  -40.1268   21.3997 H       1  LIG   0.0732   0.1000 
31    H12      3.0430  -39.6129   22.8177 H       1  LIG   0.0789   0.1000 
32    C15      1.6390  -40.0610   21.0880 C.3     1  LIG  -0.1196  -0.2000 
33    H13      0.6832  -39.9283   21.5242 H       1  LIG   0.0807   0.1000 
34    H14      1.5292  -40.4423   20.1061 H       1  LIG   0.0733   0.1000 
@<TRIPOS>BOND
1     2     1     ar
2     3     2     1
3     4     2     ar
4     5     4     1
5     6     4     ar
6     7     6     ar
7     8     7     1
8     9     8     1
9     10    8     1
10    11    10    1
11    12    11    ar
12    13    12    1
13    14    12    ar
14    15    14    1
15    16    14    ar
16    17    16    1
17    18    16    ar
18    19    11    ar
19    19    18    ar
20    20    19    1
21    21    1     ar
22    21    7     ar
23    21    20    1
24    22    6     1
25    23    22    1
26    24    22    1
27    25    22    1
28    26    10    2
29    27    20    1
30    28    27    1
31    29    27    1
32    30    29    1
33    31    29    1
34    32    27    1
35    32    29    1
36    33    32    1
37    34    32    1
@<TRIPOS>SUBSTRUCTURE
1   LIG    1    
 
########## Name        : 1VRT.lig
########## Description : AM1BCC_CHARGES =  -0.0002 ORIGINAL_CHARGES =  -0.0000

@<TRIPOS>MOLECULE
1VRT.lig
34    37    1     0     0    
SMALL
USER_CHARGES
@<TRIPOS>ATOM
1     N1       4.0540  -36.9310   22.2210 N.ar    1  LIG  -0.6650  -0.6200 
2     C1       4.9660  -36.2380   22.9390 C.ar    1  LIG   0.3947   0.1600 
3     H1       6.0082  -36.2811   22.6707 H       1  LIG   0.0281   0.1500 
4     C2       4.6240  -35.4500   24.0360 C.ar    1  LIG  -0.2334  -0.1500 
5     H2       5.3884  -34.9151   24.5740 H       1  LIG   0.1480   0.1500 
6     C3       3.3050  -35.3690   24.4150 C.ar    1  LIG  -0.0698  -0.1435 
7     C4       2.3460  -36.0770   23.6860 C.ar    1  LIG  -0.0398   0.1170 
8     N2       0.9890  -36.0280   24.1030 N.am    1  LIG  -0.4596  -0.5470 
9     H3       0.7643  -35.9928   25.0860 H       1  LIG   0.3311   0.3700 
10    C5      -0.1450  -36.0180   23.4080 C.2     1  LIG   0.7361   0.5438 
11    C6      -0.1190  -36.0770   21.8860 C.ar    1  LIG  -0.2550   0.0862 
12    C7      -1.1230  -35.3990   21.1890 C.ar    1  LIG  -0.0321  -0.1500 
13    H4      -1.7552  -34.6955   21.7041 H       1  LIG   0.1623   0.1500 
14    C8      -1.2960  -35.6300   19.8690 C.ar    1  LIG  -0.2723  -0.1500 
15    H5      -2.0662  -35.1073   19.3273 H       1  LIG   0.1522   0.1500 
16    C9      -0.4670  -36.5450   19.2400 C.ar    1  LIG   0.4373   0.1600 
17    H6      -0.5947  -36.7554   18.1915 H       1  LIG   0.0280   0.1500 
18    N3       0.5220  -37.2120   19.8740 N.ar    1  LIG  -0.6893  -0.6200 
19    C10      0.7040  -36.9790   21.1800 C.ar    1  LIG   0.6480   0.4100 
20    N4       1.7670  -37.6730   21.8260 N.pl3   1  LIG  -0.6924  -0.3690 
21    C11      2.7540  -36.8570   22.5840 C.ar    1  LIG   0.5805   0.4100 
22    C12      2.9040  -34.5090   25.6010 C.3     1  LIG  -0.0620   0.1435 
23    H7       2.2235  -33.7630   25.2820 H       1  LIG   0.0570   0.0000 
24    H8       2.4436  -35.1154   26.3371 H       1  LIG   0.0495   0.0000 
25    H9       3.7654  -34.0491   26.0108 H       1  LIG   0.0519   0.0000 
26    O1      -1.2400  -35.9060   23.9770 O.2     1  LIG  -0.6361  -0.5700 
27    C13      2.3440  -38.7570   21.0360 C.3     1  LIG   0.1354   0.0690 
28    H10      3.1238  -38.3754   20.4296 H       1  LIG   0.0981   0.1000 
29    C14      2.9380  -39.8900   21.8010 C.3     1  LIG  -0.1181  -0.2000 
30    H11      3.8890  -40.1268   21.3997 H       1  LIG   0.0732   0.1000 
31    H12      3.0430  -39.6129   22.8177 H       1  LIG   0.0789   0.1000 
32    C15      1.6390  -40.0610   21.0880 C.3     1  LIG  -0.1196  -0.2000 
33    H13      0.6832  -39.9283   21.5242 H       1  LIG   0.0807   0.1000 
34    H14      1.5292  -40.4423   20.1061 H       1  LIG   0.0733   0.1000 
@<TRIPOS>BOND
1     2     1     ar
2     3     2     1
3     4     2     ar
4     5     4     1
5     6     4     ar
6     7     6     ar
7     8     7     1
8     9     8     1
9     10    8     1
10    11    10    1
11    12    11    ar
12    13    12    1
13    14    12    ar
14    15    14    1
15    16    14    ar
16    17    16    1
17    18    16    ar
18    19    11    ar
19    19    18    ar
20    20    19    1
21    21    1     ar
22    21    7     ar
23    21    20    1
24    22    6     1
25    23    22    1
26    24    22    1
27    25    22    1
28    26    10    2
29    27    20    1
30    28    27    1
31    29    27    1
32    30    29    1
33    31    29    1
34    32    27    1
35    32    29    1
36    33    32    1
37    34    32    1
@<TRIPOS>SUBSTRUCTURE
1   LIG    1    
 
########## Name        : 1VRT.lig
########## Description : AM1BCC_CHARGES =  -0.0002 ORIGINAL_CHARGES =  -0.0000

@<TRIPOS>MOLECULE
1VRT.lig
34    37    1     0     0    
SMALL
USER_CHARGES
@<TRIPOS>ATOM
1     N1       4.0540  -36.9310   22.2210 N.ar    1  LIG  -0.6650  -0.6200 
2     C1       4.9660  -36.2380   22.9390 C.ar    1  LIG   0.3947   0.1600 
3     H1       6.0082  -36.2811   22.6707 H       1  LIG   0.0281   0.1500 
4     C2       4.6240  -35.4500   24.0360 C.ar    1  LIG  -0.2334  -0.1500 
5     H2       5.3884  -34.9151   24.5740 H       1  LIG   0.1480   0.1500 
6     C3       3.3050  -35.3690   24.4150 C.ar    1  LIG  -0.0698  -0.1435 
7     C4       2.3460  -36.0770   23.6860 C.ar    1  LIG  -0.0398   0.1170 
8     N2       0.9890  -36.0280   24.1030 N.am    1  LIG  -0.4596  -0.5470 
9     H3       0.7643  -35.9928   25.0860 H       1  LIG   0.3311   0.3700 
10    C5      -0.1450  -36.0180   23.4080 C.2     1  LIG   0.7361   0.5438 
11    C6      -0.1190  -36.0770   21.8860 C.ar    1  LIG  -0.2550   0.0862 
12    C7      -1.1230  -35.3990   21.1890 C.ar    1  LIG  -0.0321  -0.1500 
13    H4      -1.7552  -34.6955   21.7041 H       1  LIG   0.1623   0.1500 
14    C8      -1.2960  -35.6300   19.8690 C.ar    1  LIG  -0.2723  -0.1500 
15    H5      -2.0662  -35.1073   19.3273 H       1  LIG   0.1522   0.1500 
16    C9      -0.4670  -36.5450   19.2400 C.ar    1  LIG   0.4373   0.1600 
17    H6      -0.5947  -36.7554   18.1915 H       1  LIG   0.0280   0.1500 
18    N3       0.5220  -37.2120   19.8740 N.ar    1  LIG  -0.6893  -0.6200 
19    C10      0.7040  -36.9790   21.1800 C.ar    1  LIG   0.6480   0.4100 
20    N4       1.7670  -37.6730   21.8260 N.pl3   1  LIG  -0.6924  -0.3690 
21    C11      2.7540  -36.8570   22.5840 C.ar    1  LIG   0.5805   0.4100 
22    C12      2.9040  -34.5090   25.6010 C.3     1  LIG  -0.0620   0.1435 
23    H7       2.2235  -33.7630   25.2820 H       1  LIG   0.0570   0.0000 
24    H8       2.4436  -35.1154   26.3371 H       1  LIG   0.0495   0.0000 
25    H9       3.7654  -34.0491   26.0108 H       1  LIG   0.0519   0.0000 
26    O1      -1.2400  -35.9060   23.9770 O.2     1  LIG  -0.6361  -0.5700 
27    C13      2.3440  -38.7570   21.0360 C.3     1  LIG   0.1354   0.0690 
28    H10      3.1238  -38.3754   20.4296 H       1  LIG   0.0981   0.1000 
29    C14      2.9380  -39.8900   21.8010 C.3     1  LIG  -0.1181  -0.2000 
30    H11      3.8890  -40.1268   21.3997 H       1  LIG   0.0732   0.1000 
31    H12      3.0430  -39.6129   22.8177 H       1  LIG   0.0789   0.1000 
32    C15      1.6390  -40.0610   21.0880 C.3     1  LIG  -0.1196  -0.2000 
33    H13      0.6832  -39.9283   21.5242 H       1  LIG   0.0807   0.1000 
34    H14      1.5292  -40.4423   20.1061 H       1  LIG   0.0733   0.1000 
@<TRIPOS>BOND
1     2     1     ar
2     3     2     1
3     4     2     ar
4     5     4     1
5     6     4     ar
6     7     6     ar
7     8     7     1
8     9     8     1
9     10    8     1
10    11    10    1
11    12    11    ar
12    13    12    1
13    14    12    ar
14    15    14    1
15    16    14    ar
16    17    16    1
17    18    16    ar
18    19    11    ar
19    19    18    ar
20    20    19    1
21    21    1     ar
22    21    7     ar
23    21    20    1
24    22    6     1
25    23    22    1
26    24    22    1
27    25    22    1
28    26    10    2
29    27    20    1
30    28    27    1
31    29    27    1
32    30    29    1
33    31    29    1
34    32    27    1
35    32    29    1
36    33    32    1
37    34    32    1
@<TRIPOS>SUBSTRUCTURE
1   LIG    1    
 
########## Name        : 1VRT.lig
########## Description : AM1BCC_CHARGES =  -0.0002 ORIGINAL_CHARGES =  -0.0000

@<TRIPOS>MOLECULE
1VRT.lig
34    37    1     0     0    
SMALL
USER_CHARGES
@<TRIPOS>ATOM
1     N1       4.0540  -36.9310   22.2210 N.ar    1  LIG  -0.6650  -0.6200 
2     C1       4.9660  -36.2380   22.9390 C.ar    1  LIG   0.3947   0.1600 
3     H1       6.0082  -36.2811   22.6707 H       1  LIG   0.0281   0.1500 
4     C2       4.6240  -35.4500   24.0360 C.ar    1  LIG  -0.2334  -0.1500 
5     H2       5.3884  -34.9151   24.5740 H       1  LIG   0.1480   0.1500 
6     C3       3.3050  -35.3690   24.4150 C.ar    1  LIG  -0.0698  -0.1435 
7     C4       2.3460  -36.0770   23.6860 C.ar    1  LIG  -0.0398   0.1170 
8     N2       0.9890  -36.0280   24.1030 N.am    1  LIG  -0.4596  -0.5470 
9     H3       0.7643  -35.9928   25.0860 H       1  LIG   0.3311   0.3700 
10    C5      -0.1450  -36.0180   23.4080 C.2     1  LIG   0.7361   0.5438 
11    C6      -0.1190  -36.0770   21.8860 C.ar    1  LIG  -0.2550   0.0862 
12    C7      -1.1230  -35.3990   21.1890 C.ar    1  LIG  -0.0321  -0.1500 
13    H4      -1.7552  -34.6955   21.7041 H       1  LIG   0.1623   0.1500 
14    C8      -1.2960  -35.6300   19.8690 C.ar    1  LIG  -0.2723  -0.1500 
15    H5      -2.0662  -35.1073   19.3273 H       1  LIG   0.1522   0.1500 
16    C9      -0.4670  -36.5450   19.2400 C.ar    1  LIG   0.4373   0.1600 
17    H6      -0.5947  -36.7554   18.1915 H       1  LIG   0.0280   0.1500 
18    N3       0.5220  -37.2120   19.8740 N.ar    1  LIG  -0.6893  -0.6200 
19    C10      0.7040  -36.9790   21.1800 C.ar    1  LIG   0.6480   0.4100 
20    N4       1.7670  -37.6730   21.8260 N.pl3   1  LIG  -0.6924  -0.3690 
21    C11      2.7540  -36.8570   22.5840 C.ar    1  LIG   0.5805   0.4100 
22    C12      2.9040  -34.5090   25.6010 C.3     1  LIG  -0.0620   0.1435 
23    H7       2.2235  -33.7630   25.2820 H       1  LIG   0.0570   0.0000 
24    H8       2.4436  -35.1154   26.3371 H       1  LIG   0.0495   0.0000 
25    H9       3.7654  -34.0491   26.0108 H       1  LIG   0.0519   0.0000 
26    O1      -1.2400  -35.9060   23.9770 O.2     1  LIG  -0.6361  -0.5700 
27    C13      2.3440  -38.7570   21.0360 C.3     1  LIG   0.1354   0.0690 
28    H10      3.1238  -38.3754   20.4296 H       1  LIG   0.0981   0.1000 
29    C14      2.9380  -39.8900   21.8010 C.3     1  LIG  -0.1181  -0.2000 
30    H11      3.8890  -40.1268   21.3997 H       1  LIG   0.0732   0.1000 
31    H12      3.0430  -39.6129   22.8177 H       1  LIG   0.0789   0.1000 
32    C15      1.6390  -40.0610   21.0880 C.3     1  LIG  -0.1196  -0.2000 
33    H13      0.6832  -39.9283   21.5242 H       1  LIG   0.0807   0.1000 
34    H14      1.5292  -40.4423   20.1061 H       1  LIG   0.0733   0.1000 
@<TRIPOS>BOND
1     2     1     ar
2     3     2     1
3     4     2     ar
4     5     4     1
5     6     4     ar
6     7     6     ar
7     8     7     1
8     9     8     1
9     10    8     1
10    11    10    1
11    12    11    ar
12    13    12    1
13    14    12    ar
14    15    14    1
15    16    14    ar
16    17    16    1
17    18    16    ar
18    19    11    ar
19    19    18    ar
20    20    19    1
21    21    1     ar
22    21    7     ar
23    21    20    1
24    22    6     1
25    23    22    1
26    24    22    1
27    25    22    1
28    26    10    2
29    27    20    1
30    28    27    1
31    29    27    1
32    30    29    1
33    31    29    1
34    32    27    1
35    32    29    1
36    33    32    1
37    34    32    1
@<TRIPOS>SUBSTRUCTURE
1   LIG    1    
 
########## Name        : 1VRT.lig
########## Description : AM1BCC_CHARGES =  -0.0002 ORIGINAL_CHARGES =  -0.0000

@<TRIPOS>MOLECULE
1VRT.lig
34    37    1     0     0    
SMALL
USER_CHARGES
@<TRIPOS>ATOM
1     N1       4.0540  -36.9310   22.2210 N.ar    1  LIG  -0.6650  -0.6200 
2     C1       4.9660  -36.2380   22.9390 C.ar    1  LIG   0.3947   0.1600 
3     H1       6.0082  -36.2811   22.6707 H       1  LIG   0.0281   0.1500 
4     C2       4.6240  -35.4500   24.0360 C.ar    1  LIG  -0.2334  -0.1500 
5     H2       5.3884  -34.9151   24.5740 H       1  LIG   0.1480   0.1500 
6     C3       3.3050  -35.3690   24.4150 C.ar    1  LIG  -0.0698  -0.1435 
7     C4       2.3460  -36.0770   23.6860 C.ar    1  LIG  -0.0398   0.1170 
8     N2       0.9890  -36.0280   24.1030 N.am    1  LIG  -0.4596  -0.5470 
9     H3       0.7643  -35.9928   25.0860 H       1  LIG   0.3311   0.3700 
10    C5      -0.1450  -36.0180   23.4080 C.2     1  LIG   0.7361   0.5438 
11    C6      -0.1190  -36.0770   21.8860 C.ar    1  LIG  -0.2550   0.0862 
12    C7      -1.1230  -35.3990   21.1890 C.ar    1  LIG  -0.0321  -0.1500 
13    H4      -1.7552  -34.6955   21.7041 H       1  LIG   0.1623   0.1500 
14    C8      -1.2960  -35.6300   19.8690 C.ar    1  LIG  -0.2723  -0.1500 
15    H5      -2.0662  -35.1073   19.3273 H       1  LIG   0.1522   0.1500 
16    C9      -0.4670  -36.5450   19.2400 C.ar    1  LIG   0.4373   0.1600 
17    H6      -0.5947  -36.7554   18.1915 H       1  LIG   0.0280   0.1500 
18    N3       0.5220  -37.2120   19.8740 N.ar    1  LIG  -0.6893  -0.6200 
19    C10      0.7040  -36.9790   21.1800 C.ar    1  LIG   0.6480   0.4100 
20    N4       1.7670  -37.6730   21.8260 N.pl3   1  LIG  -0.6924  -0.3690 
21    C11      2.7540  -36.8570   22.5840 C.ar    1  LIG   0.5805   0.4100 
22    C12      2.9040  -34.5090   25.6010 C.3     1  LIG  -0.0620   0.1435 
23    H7       2.2235  -33.7630   25.2820 H       1  LIG   0.0570   0.0000 
24    H8       2.4436  -35.1154   26.3371 H       1  LIG   0.0495   0.0000 
25    H9       3.7654  -34.0491   26.0108 H       1  LIG   0.0519   0.0000 
26    O1      -1.2400  -35.9060   23.9770 O.2     1  LIG  -0.6361  -0.5700 
27    C13      2.3440  -38.7570   21.0360 C.3     1  LIG   0.1354   0.0690 
28    H10      3.1238  -38.3754   20.4296 H       1  LIG   0.0981   0.1000 
29    C14      2.9380  -39.8900   21.8010 C.3     1  LIG  -0.1181  -0.2000 
30    H11      3.8890  -40.1268   21.3997 H       1  LIG   0.0732   0.1000 
31    H12      3.0430  -39.6129   22.8177 H       1  LIG   0.0789   0.1000 
32    C15      1.6390  -40.0610   21.0880 C.3     1  LIG  -0.1196  -0.2000 
33    H13      0.6832  -39.9283   21.5242 H       1  LIG   0.0807   0.1000 
34    H14      1.5292  -40.4423   20.1061 H       1  LIG   0.0733   0.1000 
@<TRIPOS>BOND
1     2     1     ar
2     3     2     1
3     4     2     ar
4     5     4     1
5     6     4     ar
6     7     6     ar
7     8     7     1
8     9     8     1
9     10    8     1
10    11    10    1
11    12    11    ar
12    13    12    1
13    14    12    ar
14    15    14    1
15    16    14    ar
16    17    16    1
17    18    16    ar
18    19    11    ar
19    19    18    ar
20    20    19    1
21    21    1     ar
22    21    7     ar
23    21    20    1
24    22    6     1
25    23    22    1
26    24    22    1
27    25    22    1
28    26    10    2
29    27    20    1
30    28    27    1
31    29    27    1
32    30    29    1
33    31    29    1
34    32    27    1
35    32    29    1
36    33    32    1
37    34    32    1
@<TRIPOS>SUBSTRUCTURE
1   LIG    1    
 
########## Name        : 1VRT.lig
########## Description : AM1BCC_CHARGES =  -0.0002 ORIGINAL_CHARGES =  -0.0000

@<TRIPOS>MOLECULE
1VRT.lig
34    37    1     0     0    
SMALL
USER_CHARGES
@<TRIPOS>ATOM
1     N1       4.0540  -36.9310   22.2210 N.ar    1  LIG  -0.6650  -0.6200 
2     C1       4.9660  -36.2380   22.9390 C.ar    1  LIG   0.3947   0.1600 
3     H1       6.0082  -36.2811   22.6707 H       1  LIG   0.0281   0.1500 
4     C2       4.6240  -35.4500   24.0360 C.ar    1  LIG  -0.2334  -0.1500 
5     H2       5.3884  -34.9151   24.5740 H       1  LIG   0.1480   0.1500 
6     C3       3.3050  -35.3690   24.4150 C.ar    1  LIG  -0.0698  -0.1435 
7     C4       2.3460  -36.0770   23.6860 C.ar    1  LIG  -0.0398   0.1170 
8     N2       0.9890  -36.0280   24.1030 N.am    1  LIG  -0.4596  -0.5470 
9     H3       0.7643  -35.9928   25.0860 H       1  LIG   0.3311   0.3700 
10    C5      -0.1450  -36.0180   23.4080 C.2     1  LIG   0.7361   0.5438 
11    C6      -0.1190  -36.0770   21.8860 C.ar    1  LIG  -0.2550   0.0862 
12    C7      -1.1230  -35.3990   21.1890 C.ar    1  LIG  -0.0321  -0.1500 
13    H4      -1.7552  -34.6955   21.7041 H       1  LIG   0.1623   0.1500 
14    C8      -1.2960  -35.6300   19.8690 C.ar    1  LIG  -0.2723  -0.1500 
15    H5      -2.0662  -35.1073   19.3273 H       1  LIG   0.1522   0.1500 
16    C9      -0.4670  -36.5450   19.2400 C.ar    1  LIG   0.4373   0.1600 
17    H6      -0.5947  -36.7554   18.1915 H       1  LIG   0.0280   0.1500 
18    N3       0.5220  -37.2120   19.8740 N.ar    1  LIG  -0.6893  -0.6200 
19    C10      0.7040  -36.9790   21.1800 C.ar    1  LIG   0.6480   0.4100 
20    N4       1.7670  -37.6730   21.8260 N.pl3   1  LIG  -0.6924  -0.3690 
21    C11      2.7540  -36.8570   22.5840 C.ar    1  LIG   0.5805   0.4100 
22    C12      2.9040  -34.5090   25.6010 C.3     1  LIG  -0.0620   0.1435 
23    H7       2.2235  -33.7630   25.2820 H       1  LIG   0.0570   0.0000 
24    H8       2.4436  -35.1154   26.3371 H       1  LIG   0.0495   0.0000 
25    H9       3.7654  -34.0491   26.0108 H       1  LIG   0.0519   0.0000 
26    O1      -1.2400  -35.9060   23.9770 O.2     1  LIG  -0.6361  -0.5700 
27    C13      2.3440  -38.7570   21.0360 C.3     1  LIG   0.1354   0.0690 
28    H10      3.1238  -38.3754   20.4296 H       1  LIG   0.0981   0.1000 
29    C14      2.9380  -39.8900   21.8010 C.3     1  LIG  -0.1181  -0.2000 
30    H11      3.8890  -40.1268   21.3997 H       1  LIG   0.0732   0.1000 
31    H12      3.0430  -39.6129   22.8177 H       1  LIG   0.0789   0.1000 
32    C15      1.6390  -40.0610   21.0880 C.3     1  LIG  -0.1196  -0.2000 
33    H13      0.6832  -39.9283   21.5242 H       1  LIG   0.0807   0.1000 
34    H14      1.5292  -40.4423   20.1061 H       1  LIG   0.0733   0.1000 
@<TRIPOS>BOND
1     2     1     ar
2     3     2     1
3     4     2     ar
4     5     4     1
5     6     4     ar
6     7     6     ar
7     8     7     1
8     9     8     1
9     10    8     1
10    11    10    1
11    12    11    ar
12    13    12    1
13    14    12    ar
14    15    14    1
15    16    14    ar
16    17    16    1
17    18    16    ar
18    19    11    ar
19    19    18    ar
20    20    19    1
21    21    1     ar
22    21    7     ar
23    21    20    1
24    22    6     1
25    23    22    1
26    24    22    1
27    25    22    1
28    26    10    2
29    27    20    1
30    28    27    1
31    29    27    1
32    30    29    1
33    31    29    1
34    32    27    1
35    32    29    1
36    33    32    1
37    34    32    1
@<TRIPOS>SUBSTRUCTURE
1   LIG    1    
 
########## Name        : 1VRT.lig
########## Description : AM1BCC_CHARGES =  -0.0002 ORIGINAL_CHARGES =  -0.0000

@<TRIPOS>MOLECULE
1VRT.lig
34    37    1     0     0    
SMALL
USER_CHARGES
@<TRIPOS>ATOM
1     N1       4.0540  -36.9310   22.2210 N.ar    1  LIG  -0.6650  -0.6200 
2     C1       4.9660  -36.2380   22.9390 C.ar    1  LIG   0.3947   0.1600 
3     H1       6.0082  -36.2811   22.6707 H       1  LIG   0.0281   0.1500 
4     C2       4.6240  -35.4500   24.0360 C.ar    1  LIG  -0.2334  -0.1500 
5     H2       5.3884  -34.9151   24.5740 H       1  LIG   0.1480   0.1500 
6     C3       3.3050  -35.3690   24.4150 C.ar    1  LIG  -0.0698  -0.1435 
7     C4       2.3460  -36.0770   23.6860 C.ar    1  LIG  -0.0398   0.1170 
8     N2       0.9890  -36.0280   24.1030 N.am    1  LIG  -0.4596  -0.5470 
9     H3       0.7643  -35.9928   25.0860 H       1  LIG   0.3311   0.3700 
10    C5      -0.1450  -36.0180   23.4080 C.2     1  LIG   0.7361   0.5438 
11    C6      -0.1190  -36.0770   21.8860 C.ar    1  LIG  -0.2550   0.0862 
12    C7      -1.1230  -35.3990   21.1890 C.ar    1  LIG  -0.0321  -0.1500 
13    H4      -1.7552  -34.6955   21.7041 H       1  LIG   0.1623   0.1500 
14    C8      -1.2960  -35.6300   19.8690 C.ar    1  LIG  -0.2723  -0.1500 
15    H5      -2.0662  -35.1073   19.3273 H       1  LIG   0.1522   0.1500 
16    C9      -0.4670  -36.5450   19.2400 C.ar    1  LIG   0.4373   0.1600 
17    H6      -0.5947  -36.7554   18.1915 H       1  LIG   0.0280   0.1500 
18    N3       0.5220  -37.2120   19.8740 N.ar    1  LIG  -0.6893  -0.6200 
19    C10      0.7040  -36.9790   21.1800 C.ar    1  LIG   0.6480   0.4100 
20    N4       1.7670  -37.6730   21.8260 N.pl3   1  LIG  -0.6924  -0.3690 
21    C11      2.7540  -36.8570   22.5840 C.ar    1  LIG   0.5805   0.4100 
22    C12      2.9040  -34.5090   25.6010 C.3     1  LIG  -0.0620   0.1435 
23    H7       2.2235  -33.7630   25.2820 H       1  LIG   0.0570   0.0000 
24    H8       2.4436  -35.1154   26.3371 H       1  LIG   0.0495   0.0000 
25    H9       3.7654  -34.0491   26.0108 H       1  LIG   0.0519   0.0000 
26    O1      -1.2400  -35.9060   23.9770 O.2     1  LIG  -0.6361  -0.5700 
27    C13      2.3440  -38.7570   21.0360 C.3     1  LIG   0.1354   0.0690 
28    H10      3.1238  -38.3754   20.4296 H       1  LIG   0.0981   0.1000 
29    C14      2.9380  -39.8900   21.8010 C.3     1  LIG  -0.1181  -0.2000 
30    H11      3.8890  -40.1268   21.3997 H       1  LIG   0.0732   0.1000 
31    H12      3.0430  -39.6129   22.8177 H       1  LIG   0.0789   0.1000 
32    C15      1.6390  -40.0610   21.0880 C.3     1  LIG  -0.1196  -0.2000 
33    H13      0.6832  -39.9283   21.5242 H       1  LIG   0.0807   0.1000 
34    H14      1.5292  -40.4423   20.1061 H       1  LIG   0.0733   0.1000 
@<TRIPOS>BOND
1     2     1     ar
2     3     2     1
3     4     2     ar
4     5     4     1
5     6     4     ar
6     7     6     ar
7     8     7     1
8     9     8     1
9     10    8     1
10    11    10    1
11    12    11    ar
12    13    12    1
13    14    12    ar
14    15    14    1
15    16    14    ar
16    17    16    1
17    18    16    ar
18    19    11    ar
19    19    18    ar
20    20    19    1
21    21    1     ar
22    21    7     ar
23    21    20    1
24    22    6     1
25    23    22    1
26    24    22    1
27    25    22    1
28    26    10    2
29    27    20    1
30    28    27    1
31    29    27    1
32    30    29    1
33    31    29    1
34    32    27    1
35    32    29    1
36    33    32    1
37    34    32    1
@<TRIPOS>SUBSTRUCTURE
1   LIG    1    
 
########## Name        : 1VRT.lig
########## Description : AM1BCC_CHARGES =  -0.0002 ORIGINAL_CHARGES =  -0.0000

@<TRIPOS>MOLECULE
1VRT.lig
34    37    1     0     0    
SMALL
USER_CHARGES
@<TRIPOS>ATOM
1     N1       4.0540  -36.9310   22.2210 N.ar    1  LIG  -0.6650  -0.6200 
2     C1       4.9660  -36.2380   22.9390 C.ar    1  LIG   0.3947   0.1600 
3     H1       6.0082  -36.2811   22.6707 H       1  LIG   0.0281   0.1500 
4     C2       4.6240  -35.4500   24.0360 C.ar    1  LIG  -0.2334  -0.1500 
5     H2       5.3884  -34.9151   24.5740 H       1  LIG   0.1480   0.1500 
6     C3       3.3050  -35.3690   24.4150 C.ar    1  LIG  -0.0698  -0.1435 
7     C4       2.3460  -36.0770   23.6860 C.ar    1  LIG  -0.0398   0.1170 
8     N2       0.9890  -36.0280   24.1030 N.am    1  LIG  -0.4596  -0.5470 
9     H3       0.7643  -35.9928   25.0860 H       1  LIG   0.3311   0.3700 
10    C5      -0.1450  -36.0180   23.4080 C.2     1  LIG   0.7361   0.5438 
11    C6      -0.1190  -36.0770   21.8860 C.ar    1  LIG  -0.2550   0.0862 
12    C7      -1.1230  -35.3990   21.1890 C.ar    1  LIG  -0.0321  -0.1500 
13    H4      -1.7552  -34.6955   21.7041 H       1  LIG   0.1623   0.1500 
14    C8      -1.2960  -35.6300   19.8690 C.ar    1  LIG  -0.2723  -0.1500 
15    H5      -2.0662  -35.1073   19.3273 H       1  LIG   0.1522   0.1500 
16    C9      -0.4670  -36.5450   19.2400 C.ar    1  LIG   0.4373   0.1600 
17    H6      -0.5947  -36.7554   18.1915 H       1  LIG   0.0280   0.1500 
18    N3       0.5220  -37.2120   19.8740 N.ar    1  LIG  -0.6893  -0.6200 
19    C10      0.7040  -36.9790   21.1800 C.ar    1  LIG   0.6480   0.4100 
20    N4       1.7670  -37.6730   21.8260 N.pl3   1  LIG  -0.6924  -0.3690 
21    C11      2.7540  -36.8570   22.5840 C.ar    1  LIG   0.5805   0.4100 
22    C12      2.9040  -34.5090   25.6010 C.3     1  LIG  -0.0620   0.1435 
23    H7       2.2235  -33.7630   25.2820 H       1  LIG   0.0570   0.0000 
24    H8       2.4436  -35.1154   26.3371 H       1  LIG   0.0495   0.0000 
25    H9       3.7654  -34.0491   26.0108 H       1  LIG   0.0519   0.0000 
26    O1      -1.2400  -35.9060   23.9770 O.2     1  LIG  -0.6361  -0.5700 
27    C13      2.3440  -38.7570   21.0360 C.3     1  LIG   0.1354   0.0690 
28    H10      3.1238  -38.3754   20.4296 H       1  LIG   0.0981   0.1000 
29    C14      2.9380  -39.8900   21.8010 C.3     1  LIG  -0.1181  -0.2000 
30    H11      3.8890  -40.1268   21.3997 H       1  LIG   0.0732   0.1000 
31    H12      3.0430  -39.6129   22.8177 H       1  LIG   0.0789   0.1000 
32    C15      1.6390  -40.0610   21.0880 C.3     1  LIG  -0.1196  -0.2000 
33    H13      0.6832  -39.9283   21.5242 H       1  LIG   0.0807   0.1000 
34    H14      1.5292  -40.4423   20.1061 H       1  LIG   0.0733   0.1000 
@<TRIPOS>BOND
1     2     1     ar
2     3     2     1
3     4     2     ar
4     5     4     1
5     6     4     ar
6     7     6     ar
7     8     7     1
8     9     8     1
9     10    8     1
10    11    10    1
11    12    11    ar
12    13    12    1
13    14    12    ar
14    15    14    1
15    16    14    ar
16    17    16    1
17    18    16    ar
18    19    11    ar
19    19    18    ar
20    20    19    1
21    21    1     ar
22    21    7     ar
23    21    20    1
24    22    6     1
25    23    22    1
26    24    22    1
27    25    22    1
28    26    10    2
29    27    20    1
30    28    27    1
31    29    27    1
32    30    29    1
33    31    29    1
34    32    27    1
35    32    29    1
36    33    32    1
37    34    32    1
@<TRIPOS>SUBSTRUCTURE
1   LIG    1    
 
########## Name        : 1VRT.lig
########## Description : AM1BCC_CHARGES =  -0.0002 ORIGINAL_CHARGES =  -0.0000

@<TRIPOS>MOLECULE
1VRT.lig
34    37    1     0     0    
SMALL
USER_CHARGES
@<TRIPOS>ATOM
1     N1       4.0540  -36.9310   22.2210 N.ar    1  LIG  -0.6650  -0.6200 
2     C1       4.9660  -36.2380   22.9390 C.ar    1  LIG   0.3947   0.1600 
3     H1       6.0082  -36.2811   22.6707 H       1  LIG   0.0281   0.1500 
4     C2       4.6240  -35.4500   24.0360 C.ar    1  LIG  -0.2334  -0.1500 
5     H2       5.3884  -34.9151   24.5740 H       1  LIG   0.1480   0.1500 
6     C3       3.3050  -35.3690   24.4150 C.ar    1  LIG  -0.0698  -0.1435 
7     C4       2.3460  -36.0770   23.6860 C.ar    1  LIG  -0.0398   0.1170 
8     N2       0.9890  -36.0280   24.1030 N.am    1  LIG  -0.4596  -0.5470 
9     H3       0.7643  -35.9928   25.0860 H       1  LIG   0.3311   0.3700 
10    C5      -0.1450  -36.0180   23.4080 C.2     1  LIG   0.7361   0.5438 
11    C6      -0.1190  -36.0770   21.8860 C.ar    1  LIG  -0.2550   0.0862 
12    C7      -1.1230  -35.3990   21.1890 C.ar    1  LIG  -0.0321  -0.1500 
13    H4      -1.7552  -34.6955   21.7041 H       1  LIG   0.1623   0.1500 
14    C8      -1.2960  -35.6300   19.8690 C.ar    1  LIG  -0.2723  -0.1500 
15    H5      -2.0662  -35.1073   19.3273 H       1  LIG   0.1522   0.1500 
16    C9      -0.4670  -36.5450   19.2400 C.ar    1  LIG   0.4373   0.1600 
17    H6      -0.5947  -36.7554   18.1915 H       1  LIG   0.0280   0.1500 
18    N3       0.5220  -37.2120   19.8740 N.ar    1  LIG  -0.6893  -0.6200 
19    C10      0.7040  -36.9790   21.1800 C.ar    1  LIG   0.6480   0.4100 
20    N4       1.7670  -37.6730   21.8260 N.pl3   1  LIG  -0.6924  -0.3690 
21    C11      2.7540  -36.8570   22.5840 C.ar    1  LIG   0.5805   0.4100 
22    C12      2.9040  -34.5090   25.6010 C.3     1  LIG  -0.0620   0.1435 
23    H7       2.2235  -33.7630   25.2820 H       1  LIG   0.0570   0.0000 
24    H8       2.4436  -35.1154   26.3371 H       1  LIG   0.0495   0.0000 
25    H9       3.7654  -34.0491   26.0108 H       1  LIG   0.0519   0.0000 
26    O1      -1.2400  -35.9060   23.9770 O.2     1  LIG  -0.6361  -0.5700 
27    C13      2.3440  -38.7570   21.0360 C.3     1  LIG   0.1354   0.0690 
28    H10      3.1238  -38.3754   20.4296 H       1  LIG   0.0981   0.1000 
29    C14      2.9380  -39.8900   21.8010 C.3     1  LIG  -0.1181  -0.2000 
30    H11      3.8890  -40.1268   21.3997 H       1  LIG   0.0732   0.1000 
31    H12      3.0430  -39.6129   22.8177 H       1  LIG   0.0789   0.1000 
32    C15      1.6390  -40.0610   21.0880 C.3     1  LIG  -0.1196  -0.2000 
33    H13      0.6832  -39.9283   21.5242 H       1  LIG   0.0807   0.1000 
34    H14      1.5292  -40.4423   20.1061 H       1  LIG   0.0733   0.1000 
@<TRIPOS>BOND
1     2     1     ar
2     3     2     1
3     4     2     ar
4     5     4     1
5     6     4     ar
6     7     6     ar
7     8     7     1
8     9     8     1
9     10    8     1
10    11    10    1
11    12    11    ar
12    13    12    1
13    14    12    ar
14    15    14    1
15    16    14    ar
16    17    16    1
17    18    16    ar
18    19    11    ar
19    19    18    ar
20    20    19    1
21    21    1     ar
22    21    7     ar
23    21    20    1
24    22    6     1
25    23    22    1
26    24    22    1
27    25    22    1
28    26    10    2
29    27    20    1
30    28    27    1
31    29    27    1
32    30    29    1
33    31    29    1
34    32    27    1
35    32    29    1
36    33    32    1
37    34    32    1
@<TRIPOS>SUBSTRUCTURE
1   LIG    1    
 
########## Name        : 1VRT.lig
########## Description : AM1BCC_CHARGES =  -0.0002 ORIGINAL_CHARGES =  -0.0000

@<TRIPOS>MOLECULE
1VRT.lig
34    37    1     0     0    
SMALL
USER_CHARGES
@<TRIPOS>ATOM
1     N1       4.0540  -36.9310   22.2210 N.ar    1  LIG  -0.6650  -0.6200 
2     C1       4.9660  -36.2380   22.9390 C.ar    1  LIG   0.3947   0.1600 
3     H1       6.0082  -36.2811   22.6707 H       1  LIG   0.0281   0.1500 
4     C2       4.6240  -35.4500   24.0360 C.ar    1  LIG  -0.2334  -0.1500 
5     H2       5.3884  -34.9151   24.5740 H       1  LIG   0.1480   0.1500 
6     C3       3.3050  -35.3690   24.4150 C.ar    1  LIG  -0.0698  -0.1435 
7     C4       2.3460  -36.0770   23.6860 C.ar    1  LIG  -0.0398   0.1170 
8     N2       0.9890  -36.0280   24.1030 N.am    1  LIG  -0.4596  -0.5470 
9     H3       0.7643  -35.9928   25.0860 H       1  LIG   0.3311   0.3700 
10    C5      -0.1450  -36.0180   23.4080 C.2     1  LIG   0.7361   0.5438 
11    C6      -0.1190  -36.0770   21.8860 C.ar    1  LIG  -0.2550   0.0862 
12    C7      -1.1230  -35.3990   21.1890 C.ar    1  LIG  -0.0321  -0.1500 
13    H4      -1.7552  -34.6955   21.7041 H       1  LIG   0.1623   0.1500 
14    C8      -1.2960  -35.6300   19.8690 C.ar    1  LIG  -0.2723  -0.1500 
15    H5      -2.0662  -35.1073   19.3273 H       1  LIG   0.1522   0.1500 
16    C9      -0.4670  -36.5450   19.2400 C.ar    1  LIG   0.4373   0.1600 
17    H6      -0.5947  -36.7554   18.1915 H       1  LIG   0.0280   0.1500 
18    N3       0.5220  -37.2120   19.8740 N.ar    1  LIG  -0.6893  -0.6200 
19    C10      0.7040  -36.9790   21.1800 C.ar    1  LIG   0.6480   0.4100 
20    N4       1.7670  -37.6730   21.8260 N.pl3   1  LIG  -0.6924  -0.3690 
21    C11      2.7540  -36.8570   22.5840 C.ar    1  LIG   0.5805   0.4100 
22    C12      2.9040  -34.5090   25.6010 C.3     1  LIG  -0.0620   0.1435 
23    H7       2.2235  -33.7630   25.2820 H       1  LIG   0.0570   0.0000 
24    H8       2.4436  -35.1154   26.3371 H       1  LIG   0.0495   0.0000 
25    H9       3.7654  -34.0491   26.0108 H       1  LIG   0.0519   0.0000 
26    O1      -1.2400  -35.9060   23.9770 O.2     1  LIG  -0.6361  -0.5700 
27    C13      2.3440  -38.7570   21.0360 C.3     1  LIG   0.1354   0.0690 
28    H10      3.1238  -38.3754   20.4296 H       1  LIG   0.0981   0.1000 
29    C14      2.9380  -39.8900   21.8010 C.3     1  LIG  -0.1181  -0.2000 
30    H11      3.8890  -40.1268   21.3997 H       1  LIG   0.0732   0.1000 
31    H12      3.0430  -39.6129   22.8177 H       1  LIG   0.0789   0.1000 
32    C15      1.6390  -40.0610   21.0880 C.3     1  LIG  -0.1196  -0.2000 
33    H13      0.6832  -39.9283   21.5242 H       1  LIG   0.0807   0.1000 
34    H14      1.5292  -40.4423   20.1061 H       1  LIG   0.0733   0.1000 
@<TRIPOS>BOND
1     2     1     ar
2     3     2     1
3     4     2     ar
4     5     4     1
5     6     4     ar
6     7     6     ar
7     8     7     1
8     9     8     1
9     10    8     1
10    11    10    1
11    12    11    ar
12    13    12    1
13    14    12    ar
14    15    14    1
15    16    14    ar
16    17    16    1
17    18    16    ar
18    19    11    ar
19    19    18    ar
20    20    19    1
21    21    1     ar
22    21    7     ar
23    21    20    1
24    22    6     1
25    23    22    1
26    24    22    1
27    25    22    1
28    26    10    2
29    27    20    1
30    28    27    1
31    29    27    1
32    30    29    1
33    31    29    1
34    32    27    1
35    32    29    1
36    33    32    1
37    34    32    1
@<TRIPOS>SUBSTRUCTURE
1   LIG    1    
 
########## Name        : 1VRT.lig
########## Description : AM1BCC_CHARGES =  -0.0002 ORIGINAL_CHARGES =  -0.0000

@<TRIPOS>MOLECULE
1VRT.lig
34    37    1     0     0    
SMALL
USER_CHARGES
@<TRIPOS>ATOM
1     N1       4.0540  -36.9310   22.2210 N.ar    1  LIG  -0.6650  -0.6200 
2     C1       4.9660  -36.2380   22.9390 C.ar    1  LIG   0.3947   0.1600 
3     H1       6.0082  -36.2811   22.6707 H       1  LIG   0.0281   0.1500 
4     C2       4.6240  -35.4500   24.0360 C.ar    1  LIG  -0.2334  -0.1500 
5     H2       5.3884  -34.9151   24.5740 H       1  LIG   0.1480   0.1500 
6     C3       3.3050  -35.3690   24.4150 C.ar    1  LIG  -0.0698  -0.1435 
7     C4       2.3460  -36.0770   23.6860 C.ar    1  LIG  -0.0398   0.1170 
8     N2       0.9890  -36.0280   24.1030 N.am    1  LIG  -0.4596  -0.5470 
9     H3       0.7643  -35.9928   25.0860 H       1  LIG   0.3311   0.3700 
10    C5      -0.1450  -36.0180   23.4080 C.2     1  LIG   0.7361   0.5438 
11    C6      -0.1190  -36.0770   21.8860 C.ar    1  LIG  -0.2550   0.0862 
12    C7      -1.1230  -35.3990   21.1890 C.ar    1  LIG  -0.0321  -0.1500 
13    H4      -1.7552  -34.6955   21.7041 H       1  LIG   0.1623   0.1500 
14    C8      -1.2960  -35.6300   19.8690 C.ar    1  LIG  -0.2723  -0.1500 
15    H5      -2.0662  -35.1073   19.3273 H       1  LIG   0.1522   0.1500 
16    C9      -0.4670  -36.5450   19.2400 C.ar    1  LIG   0.4373   0.1600 
17    H6      -0.5947  -36.7554   18.1915 H       1  LIG   0.0280   0.1500 
18    N3       0.5220  -37.2120   19.8740 N.ar    1  LIG  -0.6893  -0.6200 
19    C10      0.7040  -36.9790   21.1800 C.ar    1  LIG   0.6480   0.4100 
20    N4       1.7670  -37.6730   21.8260 N.pl3   1  LIG  -0.6924  -0.3690 
21    C11      2.7540  -36.8570   22.5840 C.ar    1  LIG   0.5805   0.4100 
22    C12      2.9040  -34.5090   25.6010 C.3     1  LIG  -0.0620   0.1435 
23    H7       2.2235  -33.7630   25.2820 H       1  LIG   0.0570   0.0000 
24    H8       2.4436  -35.1154   26.3371 H       1  LIG   0.0495   0.0000 
25    H9       3.7654  -34.0491   26.0108 H       1  LIG   0.0519   0.0000 
26    O1      -1.2400  -35.9060   23.9770 O.2     1  LIG  -0.6361  -0.5700 
27    C13      2.3440  -38.7570   21.0360 C.3     1  LIG   0.1354   0.0690 
28    H10      3.1238  -38.3754   20.4296 H       1  LIG   0.0981   0.1000 
29    C14      2.9380  -39.8900   21.8010 C.3     1  LIG  -0.1181  -0.2000 
30    H11      3.8890  -40.1268   21.3997 H       1  LIG   0.0732   0.1000 
31    H12      3.0430  -39.6129   22.8177 H       1  LIG   0.0789   0.1000 
32    C15      1.6390  -40.0610   21.0880 C.3     1  LIG  -0.1196  -0.2000 
33    H13      0.6832  -39.9283   21.5242 H       1  LIG   0.0807   0.1000 
34    H14      1.5292  -40.4423   20.1061 H       1  LIG   0.0733   0.1000 
@<TRIPOS>BOND
1     2     1     ar
2     3     2     1
3     4     2     ar
4     5     4     1
5     6     4     ar
6     7     6     ar
7     8     7     1
8     9     8     1
9     10    8     1
10    11    10    1
11    12    11    ar
12    13    12    1
13    14    12    ar
14    15    14    1
15    16    14    ar
16    17    16    1
17    18    16    ar
18    19    11    ar
19    19    18    ar
20    20    19    1
21    21    1     ar
22    21    7     ar
23    21    20    1
24    22    6     1
25    23    22    1
26    24    22    1
27    25    22    1
28    26    10    2
29    27    20    1
30    28    27    1
31    29    27    1
32    30    29    1
33    31    29    1
34    32    27    1
35    32    29    1
36    33    32    1
37    34    32    1
@<TRIPOS>SUBSTRUCTURE
1   LIG    1    
 
########## Name        : 1VRT.lig
########## Description : AM1BCC_CHARGES =  -0.0002 ORIGINAL_CHARGES =  -0.0000

@<TRIPOS>MOLECULE
1VRT.lig
34    37    1     0     0    
SMALL
USER_CHARGES
@<TRIPOS>ATOM
1     N1       4.0540  -36.9310   22.2210 N.ar    1  LIG  -0.6650  -0.6200 
2     C1       4.9660  -36.2380   22.9390 C.ar    1  LIG   0.3947   0.1600 
3     H1       6.0082  -36.2811   22.6707 H       1  LIG   0.0281   0.1500 
4     C2       4.6240  -35.4500   24.0360 C.ar    1  LIG  -0.2334  -0.1500 
5     H2       5.3884  -34.9151   24.5740 H       1  LIG   0.1480   0.1500 
6     C3       3.3050  -35.3690   24.4150 C.ar    1  LIG  -0.0698  -0.1435 
7     C4       2.3460  -36.0770   23.6860 C.ar    1  LIG  -0.0398   0.1170 
8     N2       0.9890  -36.0280   24.1030 N.am    1  LIG  -0.4596  -0.5470 
9     H3       0.7643  -35.9928   25.0860 H       1  LIG   0.3311   0.3700 
10    C5      -0.1450  -36.0180   23.4080 C.2     1  LIG   0.7361   0.5438 
11    C6      -0.1190  -36.0770   21.8860 C.ar    1  LIG  -0.2550   0.0862 
12    C7      -1.1230  -35.3990   21.1890 C.ar    1  LIG  -0.0321  -0.1500 
13    H4      -1.7552  -34.6955   21.7041 H       1  LIG   0.1623   0.1500 
14    C8      -1.2960  -35.6300   19.8690 C.ar    1  LIG  -0.2723  -0.1500 
15    H5      -2.0662  -35.1073   19.3273 H       1  LIG   0.1522   0.1500 
16    C9      -0.4670  -36.5450   19.2400 C.ar    1  LIG   0.4373   0.1600 
17    H6      -0.5947  -36.7554   18.1915 H       1  LIG   0.0280   0.1500 
18    N3       0.5220  -37.2120   19.8740 N.ar    1  LIG  -0.6893  -0.6200 
19    C10      0.7040  -36.9790   21.1800 C.ar    1  LIG   0.6480   0.4100 
20    N4       1.7670  -37.6730   21.8260 N.pl3   1  LIG  -0.6924  -0.3690 
21    C11      2.7540  -36.8570   22.5840 C.ar    1  LIG   0.5805   0.4100 
22    C12      2.9040  -34.5090   25.6010 C.3     1  LIG  -0.0620   0.1435 
23    H7       2.2235  -33.7630   25.2820 H       1  LIG   0.0570   0.0000 
24    H8       2.4436  -35.1154   26.3371 H       1  LIG   0.0495   0.0000 
25    H9       3.7654  -34.0491   26.0108 H       1  LIG   0.0519   0.0000 
26    O1      -1.2400  -35.9060   23.9770 O.2     1  LIG  -0.6361  -0.5700 
27    C13      2.3440  -38.7570   21.0360 C.3     1  LIG   0.1354   0.0690 
28    H10      3.1238  -38.3754   20.4296 H       1  LIG   0.0981   0.1000 
29    C14      2.9380  -39.8900   21.8010 C.3     1  LIG  -0.1181  -0.2000 
30    H11      3.8890  -40.1268   21.3997 H       1  LIG   0.0732   0.1000 
31    H12      3.0430  -39.6129   22.8177 H       1  LIG   0.0789   0.1000 
32    C15      1.6390  -40.0610   21.0880 C.3     1  LIG  -0.1196  -0.2000 
33    H13      0.6832  -39.9283   21.5242 H       1  LIG   0.0807   0.1000 
34    H14      1.5292  -40.4423   20.1061 H       1  LIG   0.0733   0.1000 
@<TRIPOS>BOND
1     2     1     ar
2     3     2     1
3     4     2     ar
4     5     4     1
5     6     4     ar
6     7     6     ar
7     8     7     1
8     9     8     1
9     10    8     1
10    11    10    1
11    12    11    ar
12    13    12    1
13    14    12    ar
14    15    14    1
15    16    14    ar
16    17    16    1
17    18    16    ar
18    19    11    ar
19    19    18    ar
20    20    19    1
21    21    1     ar
22    21    7     ar
23    21    20    1
24    22    6     1
25    23    22    1
26    24    22    1
27    25    22    1
28    26    10    2
29    27    20    1
30    28    27    1
31    29    27    1
32    30    29    1
33    31    29    1
34    32    27    1
35    32    29    1
36    33    32    1
37    34    32    1
@<TRIPOS>SUBSTRUCTURE
1   LIG    1    
 
########## Name        : 1VRT.lig
########## Description : AM1BCC_CHARGES =  -0.0002 ORIGINAL_CHARGES =  -0.0000

@<TRIPOS>MOLECULE
1VRT.lig
34    37    1     0     0    
SMALL
USER_CHARGES
@<TRIPOS>ATOM
1     N1       4.0540  -36.9310   22.2210 N.ar    1  LIG  -0.6650  -0.6200 
2     C1       4.9660  -36.2380   22.9390 C.ar    1  LIG   0.3947   0.1600 
3     H1       6.0082  -36.2811   22.6707 H       1  LIG   0.0281   0.1500 
4     C2       4.6240  -35.4500   24.0360 C.ar    1  LIG  -0.2334  -0.1500 
5     H2       5.3884  -34.9151   24.5740 H       1  LIG   0.1480   0.1500 
6     C3       3.3050  -35.3690   24.4150 C.ar    1  LIG  -0.0698  -0.1435 
7     C4       2.3460  -36.0770   23.6860 C.ar    1  LIG  -0.0398   0.1170 
8     N2       0.9890  -36.0280   24.1030 N.am    1  LIG  -0.4596  -0.5470 
9     H3       0.7643  -35.9928   25.0860 H       1  LIG   0.3311   0.3700 
10    C5      -0.1450  -36.0180   23.4080 C.2     1  LIG   0.7361   0.5438 
11    C6      -0.1190  -36.0770   21.8860 C.ar    1  LIG  -0.2550   0.0862 
12    C7      -1.1230  -35.3990   21.1890 C.ar    1  LIG  -0.0321  -0.1500 
13    H4      -1.7552  -34.6955   21.7041 H       1  LIG   0.1623   0.1500 
14    C8      -1.2960  -35.6300   19.8690 C.ar    1  LIG  -0.2723  -0.1500 
15    H5      -2.0662  -35.1073   19.3273 H       1  LIG   0.1522   0.1500 
16    C9      -0.4670  -36.5450   19.2400 C.ar    1  LIG   0.4373   0.1600 
17    H6      -0.5947  -36.7554   18.1915 H       1  LIG   0.0280   0.1500 
18    N3       0.5220  -37.2120   19.8740 N.ar    1  LIG  -0.6893  -0.6200 
19    C10      0.7040  -36.9790   21.1800 C.ar    1  LIG   0.6480   0.4100 
20    N4       1.7670  -37.6730   21.8260 N.pl3   1  LIG  -0.6924  -0.3690 
21    C11      2.7540  -36.8570   22.5840 C.ar    1  LIG   0.5805   0.4100 
22    C12      2.9040  -34.5090   25.6010 C.3     1  LIG  -0.0620   0.1435 
23    H7       2.2235  -33.7630   25.2820 H       1  LIG   0.0570   0.0000 
24    H8       2.4436  -35.1154   26.3371 H       1  LIG   0.0495   0.0000 
25    H9       3.7654  -34.0491   26.0108 H       1  LIG   0.0519   0.0000 
26    O1      -1.2400  -35.9060   23.9770 O.2     1  LIG  -0.6361  -0.5700 
27    C13      2.3440  -38.7570   21.0360 C.3     1  LIG   0.1354   0.0690 
28    H10      3.1238  -38.3754   20.4296 H       1  LIG   0.0981   0.1000 
29    C14      2.9380  -39.8900   21.8010 C.3     1  LIG  -0.1181  -0.2000 
30    H11      3.8890  -40.1268   21.3997 H       1  LIG   0.0732   0.1000 
31    H12      3.0430  -39.6129   22.8177 H       1  LIG   0.0789   0.1000 
32    C15      1.6390  -40.0610   21.0880 C.3     1  LIG  -0.1196  -0.2000 
33    H13      0.6832  -39.9283   21.5242 H       1  LIG   0.0807   0.1000 
34    H14      1.5292  -40.4423   20.1061 H       1  LIG   0.0733   0.1000 
@<TRIPOS>BOND
1     2     1     ar
2     3     2     1
3     4     2     ar
4     5     4     1
5     6     4     ar
6     7     6     ar
7     8     7     1
8     9     8     1
9     10    8     1
10    11    10    1
11    12    11    ar
12    13    12    1
13    14    12    ar
14    15    14    1
15    16    14    ar
16    17    16    1
17    18    16    ar
18    19    11    ar
19    19    18    ar
20    20    19    1
21    21    1     ar
22    21    7     ar
23    21    20    1
24    22    6     1
25    23    22    1
26    24    22    1
27    25    22    1
28    26    10    2
29    27    20    1
30    28    27    1
31    29    27    1
32    30    29    1
33    31    29    1
34    32    27    1
35    32    29    1
36    33    32    1
37    34    32    1
@<TRIPOS>SUBSTRUCTURE
1   LIG    1    
 
########## Name        : 1VRT.lig
########## Description : AM1BCC_CHARGES =  -0.0002 ORIGINAL_CHARGES =  -0.0000

@<TRIPOS>MOLECULE
1VRT.lig
34    37    1     0     0    
SMALL
USER_CHARGES
@<TRIPOS>ATOM
1     N1       4.0540  -36.9310   22.2210 N.ar    1  LIG  -0.6650  -0.6200 
2     C1       4.9660  -36.2380   22.9390 C.ar    1  LIG   0.3947   0.1600 
3     H1       6.0082  -36.2811   22.6707 H       1  LIG   0.0281   0.1500 
4     C2       4.6240  -35.4500   24.0360 C.ar    1  LIG  -0.2334  -0.1500 
5     H2       5.3884  -34.9151   24.5740 H       1  LIG   0.1480   0.1500 
6     C3       3.3050  -35.3690   24.4150 C.ar    1  LIG  -0.0698  -0.1435 
7     C4       2.3460  -36.0770   23.6860 C.ar    1  LIG  -0.0398   0.1170 
8     N2       0.9890  -36.0280   24.1030 N.am    1  LIG  -0.4596  -0.5470 
9     H3       0.7643  -35.9928   25.0860 H       1  LIG   0.3311   0.3700 
10    C5      -0.1450  -36.0180   23.4080 C.2     1  LIG   0.7361   0.5438 
11    C6      -0.1190  -36.0770   21.8860 C.ar    1  LIG  -0.2550   0.0862 
12    C7      -1.1230  -35.3990   21.1890 C.ar    1  LIG  -0.0321  -0.1500 
13    H4      -1.7552  -34.6955   21.7041 H       1  LIG   0.1623   0.1500 
14    C8      -1.2960  -35.6300   19.8690 C.ar    1  LIG  -0.2723  -0.1500 
15    H5      -2.0662  -35.1073   19.3273 H       1  LIG   0.1522   0.1500 
16    C9      -0.4670  -36.5450   19.2400 C.ar    1  LIG   0.4373   0.1600 
17    H6      -0.5947  -36.7554   18.1915 H       1  LIG   0.0280   0.1500 
18    N3       0.5220  -37.2120   19.8740 N.ar    1  LIG  -0.6893  -0.6200 
19    C10      0.7040  -36.9790   21.1800 C.ar    1  LIG   0.6480   0.4100 
20    N4       1.7670  -37.6730   21.8260 N.pl3   1  LIG  -0.6924  -0.3690 
21    C11      2.7540  -36.8570   22.5840 C.ar    1  LIG   0.5805   0.4100 
22    C12      2.9040  -34.5090   25.6010 C.3     1  LIG  -0.0620   0.1435 
23    H7       2.2235  -33.7630   25.2820 H       1  LIG   0.0570   0.0000 
24    H8       2.4436  -35.1154   26.3371 H       1  LIG   0.0495   0.0000 
25    H9       3.7654  -34.0491   26.0108 H       1  LIG   0.0519   0.0000 
26    O1      -1.2400  -35.9060   23.9770 O.2     1  LIG  -0.6361  -0.5700 
27    C13      2.3440  -38.7570   21.0360 C.3     1  LIG   0.1354   0.0690 
28    H10      3.1238  -38.3754   20.4296 H       1  LIG   0.0981   0.1000 
29    C14      2.9380  -39.8900   21.8010 C.3     1  LIG  -0.1181  -0.2000 
30    H11      3.8890  -40.1268   21.3997 H       1  LIG   0.0732   0.1000 
31    H12      3.0430  -39.6129   22.8177 H       1  LIG   0.0789   0.1000 
32    C15      1.6390  -40.0610   21.0880 C.3     1  LIG  -0.1196  -0.2000 
33    H13      0.6832  -39.9283   21.5242 H       1  LIG   0.0807   0.1000 
34    H14      1.5292  -40.4423   20.1061 H       1  LIG   0.0733   0.1000 
@<TRIPOS>BOND
1     2     1     ar
2     3     2     1
3     4     2     ar
4     5     4     1
5     6     4     ar
6     7     6     ar
7     8     7     1
8     9     8     1
9     10    8     1
10    11    10    1
11    12    11    ar
12    13    12    1
13    14    12    ar
14    15    14    1
15    16    14    ar
16    17    16    1
17    18    16    ar
18    19    11    ar
19    19    18    ar
20    20    19    1
21    21    1     ar
22    21    7     ar
23    21    20    1
24    22    6     1
25    23    22    1
26    24    22    1
27    25    22    1
28    26    10    2
29    27    20    1
30    28    27    1
31    29    27    1
32    30    29    1
33    31    29    1
34    32    27    1
35    32    29    1
36    33    32    1
37    34    32    1
@<TRIPOS>SUBSTRUCTURE
1   LIG    1    
 
########## Name        : 1VRT.lig
########## Description : AM1BCC_CHARGES =  -0.0002 ORIGINAL_CHARGES =  -0.0000

@<TRIPOS>MOLECULE
1VRT.lig
34    37    1     0     0    
SMALL
USER_CHARGES
@<TRIPOS>ATOM
1     N1       4.0540  -36.9310   22.2210 N.ar    1  LIG  -0.6650  -0.6200 
2     C1       4.9660  -36.2380   22.9390 C.ar    1  LIG   0.3947   0.1600 
3     H1       6.0082  -36.2811   22.6707 H       1  LIG   0.0281   0.1500 
4     C2       4.6240  -35.4500   24.0360 C.ar    1  LIG  -0.2334  -0.1500 
5     H2       5.3884  -34.9151   24.5740 H       1  LIG   0.1480   0.1500 
6     C3       3.3050  -35.3690   24.4150 C.ar    1  LIG  -0.0698  -0.1435 
7     C4       2.3460  -36.0770   23.6860 C.ar    1  LIG  -0.0398   0.1170 
8     N2       0.9890  -36.0280   24.1030 N.am    1  LIG  -0.4596  -0.5470 
9     H3       0.7643  -35.9928   25.0860 H       1  LIG   0.3311   0.3700 
10    C5      -0.1450  -36.0180   23.4080 C.2     1  LIG   0.7361   0.5438 
11    C6      -0.1190  -36.0770   21.8860 C.ar    1  LIG  -0.2550   0.0862 
12    C7      -1.1230  -35.3990   21.1890 C.ar    1  LIG  -0.0321  -0.1500 
13    H4      -1.7552  -34.6955   21.7041 H       1  LIG   0.1623   0.1500 
14    C8      -1.2960  -35.6300   19.8690 C.ar    1  LIG  -0.2723  -0.1500 
15    H5      -2.0662  -35.1073   19.3273 H       1  LIG   0.1522   0.1500 
16    C9      -0.4670  -36.5450   19.2400 C.ar    1  LIG   0.4373   0.1600 
17    H6      -0.5947  -36.7554   18.1915 H       1  LIG   0.0280   0.1500 
18    N3       0.5220  -37.2120   19.8740 N.ar    1  LIG  -0.6893  -0.6200 
19    C10      0.7040  -36.9790   21.1800 C.ar    1  LIG   0.6480   0.4100 
20    N4       1.7670  -37.6730   21.8260 N.pl3   1  LIG  -0.6924  -0.3690 
21    C11      2.7540  -36.8570   22.5840 C.ar    1  LIG   0.5805   0.4100 
22    C12      2.9040  -34.5090   25.6010 C.3     1  LIG  -0.0620   0.1435 
23    H7       2.2235  -33.7630   25.2820 H       1  LIG   0.0570   0.0000 
24    H8       2.4436  -35.1154   26.3371 H       1  LIG   0.0495   0.0000 
25    H9       3.7654  -34.0491   26.0108 H       1  LIG   0.0519   0.0000 
26    O1      -1.2400  -35.9060   23.9770 O.2     1  LIG  -0.6361  -0.5700 
27    C13      2.3440  -38.7570   21.0360 C.3     1  LIG   0.1354   0.0690 
28    H10      3.1238  -38.3754   20.4296 H       1  LIG   0.0981   0.1000 
29    C14      2.9380  -39.8900   21.8010 C.3     1  LIG  -0.1181  -0.2000 
30    H11      3.8890  -40.1268   21.3997 H       1  LIG   0.0732   0.1000 
31    H12      3.0430  -39.6129   22.8177 H       1  LIG   0.0789   0.1000 
32    C15      1.6390  -40.0610   21.0880 C.3     1  LIG  -0.1196  -0.2000 
33    H13      0.6832  -39.9283   21.5242 H       1  LIG   0.0807   0.1000 
34    H14      1.5292  -40.4423   20.1061 H       1  LIG   0.0733   0.1000 
@<TRIPOS>BOND
1     2     1     ar
2     3     2     1
3     4     2     ar
4     5     4     1
5     6     4     ar
6     7     6     ar
7     8     7     1
8     9     8     1
9     10    8     1
10    11    10    1
11    12    11    ar
12    13    12    1
13    14    12    ar
14    15    14    1
15    16    14    ar
16    17    16    1
17    18    16    ar
18    19    11    ar
19    19    18    ar
20    20    19    1
21    21    1     ar
22    21    7     ar
23    21    20    1
24    22    6     1
25    23    22    1
26    24    22    1
27    25    22    1
28    26    10    2
29    27    20    1
30    28    27    1
31    29    27    1
32    30    29    1
33    31    29    1
34    32    27    1
35    32    29    1
36    33    32    1
37    34    32    1
@<TRIPOS>SUBSTRUCTURE
1   LIG    1    
 
########## Name        : 1VRT.lig
########## Description : AM1BCC_CHARGES =  -0.0002 ORIGINAL_CHARGES =  -0.0000

@<TRIPOS>MOLECULE
1VRT.lig
34    37    1     0     0    
SMALL
USER_CHARGES
@<TRIPOS>ATOM
1     N1       4.0540  -36.9310   22.2210 N.ar    1  LIG  -0.6650  -0.6200 
2     C1       4.9660  -36.2380   22.9390 C.ar    1  LIG   0.3947   0.1600 
3     H1       6.0082  -36.2811   22.6707 H       1  LIG   0.0281   0.1500 
4     C2       4.6240  -35.4500   24.0360 C.ar    1  LIG  -0.2334  -0.1500 
5     H2       5.3884  -34.9151   24.5740 H       1  LIG   0.1480   0.1500 
6     C3       3.3050  -35.3690   24.4150 C.ar    1  LIG  -0.0698  -0.1435 
7     C4       2.3460  -36.0770   23.6860 C.ar    1  LIG  -0.0398   0.1170 
8     N2       0.9890  -36.0280   24.1030 N.am    1  LIG  -0.4596  -0.5470 
9     H3       0.7643  -35.9928   25.0860 H       1  LIG   0.3311   0.3700 
10    C5      -0.1450  -36.0180   23.4080 C.2     1  LIG   0.7361   0.5438 
11    C6      -0.1190  -36.0770   21.8860 C.ar    1  LIG  -0.2550   0.0862 
12    C7      -1.1230  -35.3990   21.1890 C.ar    1  LIG  -0.0321  -0.1500 
13    H4      -1.7552  -34.6955   21.7041 H       1  LIG   0.1623   0.1500 
14    C8      -1.2960  -35.6300   19.8690 C.ar    1  LIG  -0.2723  -0.1500 
15    H5      -2.0662  -35.1073   19.3273 H       1  LIG   0.1522   0.1500 
16    C9      -0.4670  -36.5450   19.2400 C.ar    1  LIG   0.4373   0.1600 
17    H6      -0.5947  -36.7554   18.1915 H       1  LIG   0.0280   0.1500 
18    N3       0.5220  -37.2120   19.8740 N.ar    1  LIG  -0.6893  -0.6200 
19    C10      0.7040  -36.9790   21.1800 C.ar    1  LIG   0.6480   0.4100 
20    N4       1.7670  -37.6730   21.8260 N.pl3   1  LIG  -0.6924  -0.3690 
21    C11      2.7540  -36.8570   22.5840 C.ar    1  LIG   0.5805   0.4100 
22    C12      2.9040  -34.5090   25.6010 C.3     1  LIG  -0.0620   0.1435 
23    H7       2.2235  -33.7630   25.2820 H       1  LIG   0.0570   0.0000 
24    H8       2.4436  -35.1154   26.3371 H       1  LIG   0.0495   0.0000 
25    H9       3.7654  -34.0491   26.0108 H       1  LIG   0.0519   0.0000 
26    O1      -1.2400  -35.9060   23.9770 O.2     1  LIG  -0.6361  -0.5700 
27    C13      2.3440  -38.7570   21.0360 C.3     1  LIG   0.1354   0.0690 
28    H10      3.1238  -38.3754   20.4296 H       1  LIG   0.0981   0.1000 
29    C14      2.9380  -39.8900   21.8010 C.3     1  LIG  -0.1181  -0.2000 
30    H11      3.8890  -40.1268   21.3997 H       1  LIG   0.0732   0.1000 
31    H12      3.0430  -39.6129   22.8177 H       1  LIG   0.0789   0.1000 
32    C15      1.6390  -40.0610   21.0880 C.3     1  LIG  -0.1196  -0.2000 
33    H13      0.6832  -39.9283   21.5242 H       1  LIG   0.0807   0.1000 
34    H14      1.5292  -40.4423   20.1061 H       1  LIG   0.0733   0.1000 
@<TRIPOS>BOND
1     2     1     ar
2     3     2     1
3     4     2     ar
4     5     4     1
5     6     4     ar
6     7     6     ar
7     8     7     1
8     9     8     1
9     10    8     1
10    11    10    1
11    12    11    ar
12    13    12    1
13    14    12    ar
14    15    14    1
15    16    14    ar
16    17    16    1
17    18    16    ar
18    19    11    ar
19    19    18    ar
20    20    19    1
21    21    1     ar
22    21    7     ar
23    21    20    1
24    22    6     1
25    23    22    1
26    24    22    1
27    25    22    1
28    26    10    2
29    27    20    1
30    28    27    1
31    29    27    1
32    30    29    1
33    31    29    1
34    32    27    1
35    32    29    1
36    33    32    1
37    34    32    1
@<TRIPOS>SUBSTRUCTURE
1   LIG    1    
 
########## Name        : 1VRT.lig
########## Description : AM1BCC_CHARGES =  -0.0002 ORIGINAL_CHARGES =  -0.0000

@<TRIPOS>MOLECULE
1VRT.lig
34    37    1     0     0    
SMALL
USER_CHARGES
@<TRIPOS>ATOM
1     N1       4.0540  -36.9310   22.2210 N.ar    1  LIG  -0.6650  -0.6200 
2     C1       4.9660  -36.2380   22.9390 C.ar    1  LIG   0.3947   0.1600 
3     H1       6.0082  -36.2811   22.6707 H       1  LIG   0.0281   0.1500 
4     C2       4.6240  -35.4500   24.0360 C.ar    1  LIG  -0.2334  -0.1500 
5     H2       5.3884  -34.9151   24.5740 H       1  LIG   0.1480   0.1500 
6     C3       3.3050  -35.3690   24.4150 C.ar    1  LIG  -0.0698  -0.1435 
7     C4       2.3460  -36.0770   23.6860 C.ar    1  LIG  -0.0398   0.1170 
8     N2       0.9890  -36.0280   24.1030 N.am    1  LIG  -0.4596  -0.5470 
9     H3       0.7643  -35.9928   25.0860 H       1  LIG   0.3311   0.3700 
10    C5      -0.1450  -36.0180   23.4080 C.2     1  LIG   0.7361   0.5438 
11    C6      -0.1190  -36.0770   21.8860 C.ar    1  LIG  -0.2550   0.0862 
12    C7      -1.1230  -35.3990   21.1890 C.ar    1  LIG  -0.0321  -0.1500 
13    H4      -1.7552  -34.6955   21.7041 H       1  LIG   0.1623   0.1500 
14    C8      -1.2960  -35.6300   19.8690 C.ar    1  LIG  -0.2723  -0.1500 
15    H5      -2.0662  -35.1073   19.3273 H       1  LIG   0.1522   0.1500 
16    C9      -0.4670  -36.5450   19.2400 C.ar    1  LIG   0.4373   0.1600 
17    H6      -0.5947  -36.7554   18.1915 H       1  LIG   0.0280   0.1500 
18    N3       0.5220  -37.2120   19.8740 N.ar    1  LIG  -0.6893  -0.6200 
19    C10      0.7040  -36.9790   21.1800 C.ar    1  LIG   0.6480   0.4100 
20    N4       1.7670  -37.6730   21.8260 N.pl3   1  LIG  -0.6924  -0.3690 
21    C11      2.7540  -36.8570   22.5840 C.ar    1  LIG   0.5805   0.4100 
22    C12      2.9040  -34.5090   25.6010 C.3     1  LIG  -0.0620   0.1435 
23    H7       2.2235  -33.7630   25.2820 H       1  LIG   0.0570   0.0000 
24    H8       2.4436  -35.1154   26.3371 H       1  LIG   0.0495   0.0000 
25    H9       3.7654  -34.0491   26.0108 H       1  LIG   0.0519   0.0000 
26    O1      -1.2400  -35.9060   23.9770 O.2     1  LIG  -0.6361  -0.5700 
27    C13      2.3440  -38.7570   21.0360 C.3     1  LIG   0.1354   0.0690 
28    H10      3.1238  -38.3754   20.4296 H       1  LIG   0.0981   0.1000 
29    C14      2.9380  -39.8900   21.8010 C.3     1  LIG  -0.1181  -0.2000 
30    H11      3.8890  -40.1268   21.3997 H       1  LIG   0.0732   0.1000 
31    H12      3.0430  -39.6129   22.8177 H       1  LIG   0.0789   0.1000 
32    C15      1.6390  -40.0610   21.0880 C.3     1  LIG  -0.1196  -0.2000 
33    H13      0.6832  -39.9283   21.5242 H       1  LIG   0.0807   0.1000 
34    H14      1.5292  -40.4423   20.1061 H       1  LIG   0.0733   0.1000 
@<TRIPOS>BOND
1     2     1     ar
2     3     2     1
3     4     2     ar
4     5     4     1
5     6     4     ar
6     7     6     ar
7     8     7     1
8     9     8     1
9     10    8     1
10    11    10    1
11    12    11    ar
12    13    12    1
13    14    12    ar
14    15    14    1
15    16    14    ar
16    17    16    1
17    18    16    ar
18    19    11    ar
19    19    18    ar
20    20    19    1
21    21    1     ar
22    21    7     ar
23    21    20    1
24    22    6     1
25    23    22    1
26    24    22    1
27    25    22    1
28    26    10    2
29    27    20    1
30    28    27    1
31    29    27    1
32    30    29    1
33    31    29    1
34    32    27    1
35    32    29    1
36    33    32    1
37    34    32    1
@<TRIPOS>SUBSTRUCTURE
1   LIG    1    
 
########## Name        : 1VRT.lig
########## Description : AM1BCC_CHARGES =  -0.0002 ORIGINAL_CHARGES =  -0.0000

@<TRIPOS>MOLECULE
1VRT.lig
34    37    1     0     0    
SMALL
USER_CHARGES
@<TRIPOS>ATOM
1     N1       4.0540  -36.9310   22.2210 N.ar    1  LIG  -0.6650  -0.6200 
2     C1       4.9660  -36.2380   22.9390 C.ar    1  LIG   0.3947   0.1600 
3     H1       6.0082  -36.2811   22.6707 H       1  LIG   0.0281   0.1500 
4     C2       4.6240  -35.4500   24.0360 C.ar    1  LIG  -0.2334  -0.1500 
5     H2       5.3884  -34.9151   24.5740 H       1  LIG   0.1480   0.1500 
6     C3       3.3050  -35.3690   24.4150 C.ar    1  LIG  -0.0698  -0.1435 
7     C4       2.3460  -36.0770   23.6860 C.ar    1  LIG  -0.0398   0.1170 
8     N2       0.9890  -36.0280   24.1030 N.am    1  LIG  -0.4596  -0.5470 
9     H3       0.7643  -35.9928   25.0860 H       1  LIG   0.3311   0.3700 
10    C5      -0.1450  -36.0180   23.4080 C.2     1  LIG   0.7361   0.5438 
11    C6      -0.1190  -36.0770   21.8860 C.ar    1  LIG  -0.2550   0.0862 
12    C7      -1.1230  -35.3990   21.1890 C.ar    1  LIG  -0.0321  -0.1500 
13    H4      -1.7552  -34.6955   21.7041 H       1  LIG   0.1623   0.1500 
14    C8      -1.2960  -35.6300   19.8690 C.ar    1  LIG  -0.2723  -0.1500 
15    H5      -2.0662  -35.1073   19.3273 H       1  LIG   0.1522   0.1500 
16    C9      -0.4670  -36.5450   19.2400 C.ar    1  LIG   0.4373   0.1600 
17    H6      -0.5947  -36.7554   18.1915 H       1  LIG   0.0280   0.1500 
18    N3       0.5220  -37.2120   19.8740 N.ar    1  LIG  -0.6893  -0.6200 
19    C10      0.7040  -36.9790   21.1800 C.ar    1  LIG   0.6480   0.4100 
20    N4       1.7670  -37.6730   21.8260 N.pl3   1  LIG  -0.6924  -0.3690 
21    C11      2.7540  -36.8570   22.5840 C.ar    1  LIG   0.5805   0.4100 
22    C12      2.9040  -34.5090   25.6010 C.3     1  LIG  -0.0620   0.1435 
23    H7       2.2235  -33.7630   25.2820 H       1  LIG   0.0570   0.0000 
24    H8       2.4436  -35.1154   26.3371 H       1  LIG   0.0495   0.0000 
25    H9       3.7654  -34.0491   26.0108 H       1  LIG   0.0519   0.0000 
26    O1      -1.2400  -35.9060   23.9770 O.2     1  LIG  -0.6361  -0.5700 
27    C13      2.3440  -38.7570   21.0360 C.3     1  LIG   0.1354   0.0690 
28    H10      3.1238  -38.3754   20.4296 H       1  LIG   0.0981   0.1000 
29    C14      2.9380  -39.8900   21.8010 C.3     1  LIG  -0.1181  -0.2000 
30    H11      3.8890  -40.1268   21.3997 H       1  LIG   0.0732   0.1000 
31    H12      3.0430  -39.6129   22.8177 H       1  LIG   0.0789   0.1000 
32    C15      1.6390  -40.0610   21.0880 C.3     1  LIG  -0.1196  -0.2000 
33    H13      0.6832  -39.9283   21.5242 H       1  LIG   0.0807   0.1000 
34    H14      1.5292  -40.4423   20.1061 H       1  LIG   0.0733   0.1000 
@<TRIPOS>BOND
1     2     1     ar
2     3     2     1
3     4     2     ar
4     5     4     1
5     6     4     ar
6     7     6     ar
7     8     7     1
8     9     8     1
9     10    8     1
10    11    10    1
11    12    11    ar
12    13    12    1
13    14    12    ar
14    15    14    1
15    16    14    ar
16    17    16    1
17    18    16    ar
18    19    11    ar
19    19    18    ar
20    20    19    1
21    21    1     ar
22    21    7     ar
23    21    20    1
24    22    6     1
25    23    22    1
26    24    22    1
27    25    22    1
28    26    10    2
29    27    20    1
30    28    27    1
31    29    27    1
32    30    29    1
33    31    29    1
34    32    27    1
35    32    29    1
36    33    32    1
37    34    32    1
@<TRIPOS>SUBSTRUCTURE
1   LIG    1    
 
########## Name        : 1VRT.lig
########## Description : AM1BCC_CHARGES =  -0.0002 ORIGINAL_CHARGES =  -0.0000

@<TRIPOS>MOLECULE
1VRT.lig
34    37    1     0     0    
SMALL
USER_CHARGES
@<TRIPOS>ATOM
1     N1       4.0540  -36.9310   22.2210 N.ar    1  LIG  -0.6650  -0.6200 
2     C1       4.9660  -36.2380   22.9390 C.ar    1  LIG   0.3947   0.1600 
3     H1       6.0082  -36.2811   22.6707 H       1  LIG   0.0281   0.1500 
4     C2       4.6240  -35.4500   24.0360 C.ar    1  LIG  -0.2334  -0.1500 
5     H2       5.3884  -34.9151   24.5740 H       1  LIG   0.1480   0.1500 
6     C3       3.3050  -35.3690   24.4150 C.ar    1  LIG  -0.0698  -0.1435 
7     C4       2.3460  -36.0770   23.6860 C.ar    1  LIG  -0.0398   0.1170 
8     N2       0.9890  -36.0280   24.1030 N.am    1  LIG  -0.4596  -0.5470 
9     H3       0.7643  -35.9928   25.0860 H       1  LIG   0.3311   0.3700 
10    C5      -0.1450  -36.0180   23.4080 C.2     1  LIG   0.7361   0.5438 
11    C6      -0.1190  -36.0770   21.8860 C.ar    1  LIG  -0.2550   0.0862 
12    C7      -1.1230  -35.3990   21.1890 C.ar    1  LIG  -0.0321  -0.1500 
13    H4      -1.7552  -34.6955   21.7041 H       1  LIG   0.1623   0.1500 
14    C8      -1.2960  -35.6300   19.8690 C.ar    1  LIG  -0.2723  -0.1500 
15    H5      -2.0662  -35.1073   19.3273 H       1  LIG   0.1522   0.1500 
16    C9      -0.4670  -36.5450   19.2400 C.ar    1  LIG   0.4373   0.1600 
17    H6      -0.5947  -36.7554   18.1915 H       1  LIG   0.0280   0.1500 
18    N3       0.5220  -37.2120   19.8740 N.ar    1  LIG  -0.6893  -0.6200 
19    C10      0.7040  -36.9790   21.1800 C.ar    1  LIG   0.6480   0.4100 
20    N4       1.7670  -37.6730   21.8260 N.pl3   1  LIG  -0.6924  -0.3690 
21    C11      2.7540  -36.8570   22.5840 C.ar    1  LIG   0.5805   0.4100 
22    C12      2.9040  -34.5090   25.6010 C.3     1  LIG  -0.0620   0.1435 
23    H7       2.2235  -33.7630   25.2820 H       1  LIG   0.0570   0.0000 
24    H8       2.4436  -35.1154   26.3371 H       1  LIG   0.0495   0.0000 
25    H9       3.7654  -34.0491   26.0108 H       1  LIG   0.0519   0.0000 
26    O1      -1.2400  -35.9060   23.9770 O.2     1  LIG  -0.6361  -0.5700 
27    C13      2.3440  -38.7570   21.0360 C.3     1  LIG   0.1354   0.0690 
28    H10      3.1238  -38.3754   20.4296 H       1  LIG   0.0981   0.1000 
29    C14      2.9380  -39.8900   21.8010 C.3     1  LIG  -0.1181  -0.2000 
30    H11      3.8890  -40.1268   21.3997 H       1  LIG   0.0732   0.1000 
31    H12      3.0430  -39.6129   22.8177 H       1  LIG   0.0789   0.1000 
32    C15      1.6390  -40.0610   21.0880 C.3     1  LIG  -0.1196  -0.2000 
33    H13      0.6832  -39.9283   21.5242 H       1  LIG   0.0807   0.1000 
34    H14      1.5292  -40.4423   20.1061 H       1  LIG   0.0733   0.1000 
@<TRIPOS>BOND
1     2     1     ar
2     3     2     1
3     4     2     ar
4     5     4     1
5     6     4     ar
6     7     6     ar
7     8     7     1
8     9     8     1
9     10    8     1
10    11    10    1
11    12    11    ar
12    13    12    1
13    14    12    ar
14    15    14    1
15    16    14    ar
16    17    16    1
17    18    16    ar
18    19    11    ar
19    19    18    ar
20    20    19    1
21    21    1     ar
22    21    7     ar
23    21    20    1
24    22    6     1
25    23    22    1
26    24    22    1
27    25    22    1
28    26    10    2
29    27    20    1
30    28    27    1
31    29    27    1
32    30    29    1
33    31    29    1
34    32    27    1
35    32    29    1
36    33    32    1
37    34    32    1
@<TRIPOS>SUBSTRUCTURE
1   LIG    1    
 
########## Name        : 1VRT.lig
########## Description : AM1BCC_CHARGES =  -0.0002 ORIGINAL_CHARGES =  -0.0000

@<TRIPOS>MOLECULE
1VRT.lig
34    37    1     0     0    
SMALL
USER_CHARGES
@<TRIPOS>ATOM
1     N1       4.0540  -36.9310   22.2210 N.ar    1  LIG  -0.6650  -0.6200 
2     C1       4.9660  -36.2380   22.9390 C.ar    1  LIG   0.3947   0.1600 
3     H1       6.0082  -36.2811   22.6707 H       1  LIG   0.0281   0.1500 
4     C2       4.6240  -35.4500   24.0360 C.ar    1  LIG  -0.2334  -0.1500 
5     H2       5.3884  -34.9151   24.5740 H       1  LIG   0.1480   0.1500 
6     C3       3.3050  -35.3690   24.4150 C.ar    1  LIG  -0.0698  -0.1435 
7     C4       2.3460  -36.0770   23.6860 C.ar    1  LIG  -0.0398   0.1170 
8     N2       0.9890  -36.0280   24.1030 N.am    1  LIG  -0.4596  -0.5470 
9     H3       0.7643  -35.9928   25.0860 H       1  LIG   0.3311   0.3700 
10    C5      -0.1450  -36.0180   23.4080 C.2     1  LIG   0.7361   0.5438 
11    C6      -0.1190  -36.0770   21.8860 C.ar    1  LIG  -0.2550   0.0862 
12    C7      -1.1230  -35.3990   21.1890 C.ar    1  LIG  -0.0321  -0.1500 
13    H4      -1.7552  -34.6955   21.7041 H       1  LIG   0.1623   0.1500 
14    C8      -1.2960  -35.6300   19.8690 C.ar    1  LIG  -0.2723  -0.1500 
15    H5      -2.0662  -35.1073   19.3273 H       1  LIG   0.1522   0.1500 
16    C9      -0.4670  -36.5450   19.2400 C.ar    1  LIG   0.4373   0.1600 
17    H6      -0.5947  -36.7554   18.1915 H       1  LIG   0.0280   0.1500 
18    N3       0.5220  -37.2120   19.8740 N.ar    1  LIG  -0.6893  -0.6200 
19    C10      0.7040  -36.9790   21.1800 C.ar    1  LIG   0.6480   0.4100 
20    N4       1.7670  -37.6730   21.8260 N.pl3   1  LIG  -0.6924  -0.3690 
21    C11      2.7540  -36.8570   22.5840 C.ar    1  LIG   0.5805   0.4100 
22    C12      2.9040  -34.5090   25.6010 C.3     1  LIG  -0.0620   0.1435 
23    H7       2.2235  -33.7630   25.2820 H       1  LIG   0.0570   0.0000 
24    H8       2.4436  -35.1154   26.3371 H       1  LIG   0.0495   0.0000 
25    H9       3.7654  -34.0491   26.0108 H       1  LIG   0.0519   0.0000 
26    O1      -1.2400  -35.9060   23.9770 O.2     1  LIG  -0.6361  -0.5700 
27    C13      2.3440  -38.7570   21.0360 C.3     1  LIG   0.1354   0.0690 
28    H10      3.1238  -38.3754   20.4296 H       1  LIG   0.0981   0.1000 
29    C14      2.9380  -39.8900   21.8010 C.3     1  LIG  -0.1181  -0.2000 
30    H11      3.8890  -40.1268   21.3997 H       1  LIG   0.0732   0.1000 
31    H12      3.0430  -39.6129   22.8177 H       1  LIG   0.0789   0.1000 
32    C15      1.6390  -40.0610   21.0880 C.3     1  LIG  -0.1196  -0.2000 
33    H13      0.6832  -39.9283   21.5242 H       1  LIG   0.0807   0.1000 
34    H14      1.5292  -40.4423   20.1061 H       1  LIG   0.0733   0.1000 
@<TRIPOS>BOND
1     2     1     ar
2     3     2     1
3     4     2     ar
4     5     4     1
5     6     4     ar
6     7     6     ar
7     8     7     1
8     9     8     1
9     10    8     1
10    11    10    1
11    12    11    ar
12    13    12    1
13    14    12    ar
14    15    14    1
15    16    14    ar
16    17    16    1
17    18    16    ar
18    19    11    ar
19    19    18    ar
20    20    19    1
21    21    1     ar
22    21    7     ar
23    21    20    1
24    22    6     1
25    23    22    1
26    24    22    1
27    25    22    1
28    26    10    2
29    27    20    1
30    28    27    1
31    29    27    1
32    30    29    1
33    31    29    1
34    32    27    1
35    32    29    1
36    33    32    1
37    34    32    1
@<TRIPOS>SUBSTRUCTURE
1   LIG    1    
 
########## Name        : 1VRT.lig
########## Description : AM1BCC_CHARGES =  -0.0002 ORIGINAL_CHARGES =  -0.0000

@<TRIPOS>MOLECULE
1VRT.lig
34    37    1     0     0    
SMALL
USER_CHARGES
@<TRIPOS>ATOM
1     N1       4.0540  -36.9310   22.2210 N.ar    1  LIG  -0.6650  -0.6200 
2     C1       4.9660  -36.2380   22.9390 C.ar    1  LIG   0.3947   0.1600 
3     H1       6.0082  -36.2811   22.6707 H       1  LIG   0.0281   0.1500 
4     C2       4.6240  -35.4500   24.0360 C.ar    1  LIG  -0.2334  -0.1500 
5     H2       5.3884  -34.9151   24.5740 H       1  LIG   0.1480   0.1500 
6     C3       3.3050  -35.3690   24.4150 C.ar    1  LIG  -0.0698  -0.1435 
7     C4       2.3460  -36.0770   23.6860 C.ar    1  LIG  -0.0398   0.1170 
8     N2       0.9890  -36.0280   24.1030 N.am    1  LIG  -0.4596  -0.5470 
9     H3       0.7643  -35.9928   25.0860 H       1  LIG   0.3311   0.3700 
10    C5      -0.1450  -36.0180   23.4080 C.2     1  LIG   0.7361   0.5438 
11    C6      -0.1190  -36.0770   21.8860 C.ar    1  LIG  -0.2550   0.0862 
12    C7      -1.1230  -35.3990   21.1890 C.ar    1  LIG  -0.0321  -0.1500 
13    H4      -1.7552  -34.6955   21.7041 H       1  LIG   0.1623   0.1500 
14    C8      -1.2960  -35.6300   19.8690 C.ar    1  LIG  -0.2723  -0.1500 
15    H5      -2.0662  -35.1073   19.3273 H       1  LIG   0.1522   0.1500 
16    C9      -0.4670  -36.5450   19.2400 C.ar    1  LIG   0.4373   0.1600 
17    H6      -0.5947  -36.7554   18.1915 H       1  LIG   0.0280   0.1500 
18    N3       0.5220  -37.2120   19.8740 N.ar    1  LIG  -0.6893  -0.6200 
19    C10      0.7040  -36.9790   21.1800 C.ar    1  LIG   0.6480   0.4100 
20    N4       1.7670  -37.6730   21.8260 N.pl3   1  LIG  -0.6924  -0.3690 
21    C11      2.7540  -36.8570   22.5840 C.ar    1  LIG   0.5805   0.4100 
22    C12      2.9040  -34.5090   25.6010 C.3     1  LIG  -0.0620   0.1435 
23    H7       2.2235  -33.7630   25.2820 H       1  LIG   0.0570   0.0000 
24    H8       2.4436  -35.1154   26.3371 H       1  LIG   0.0495   0.0000 
25    H9       3.7654  -34.0491   26.0108 H       1  LIG   0.0519   0.0000 
26    O1      -1.2400  -35.9060   23.9770 O.2     1  LIG  -0.6361  -0.5700 
27    C13      2.3440  -38.7570   21.0360 C.3     1  LIG   0.1354   0.0690 
28    H10      3.1238  -38.3754   20.4296 H       1  LIG   0.0981   0.1000 
29    C14      2.9380  -39.8900   21.8010 C.3     1  LIG  -0.1181  -0.2000 
30    H11      3.8890  -40.1268   21.3997 H       1  LIG   0.0732   0.1000 
31    H12      3.0430  -39.6129   22.8177 H       1  LIG   0.0789   0.1000 
32    C15      1.6390  -40.0610   21.0880 C.3     1  LIG  -0.1196  -0.2000 
33    H13      0.6832  -39.9283   21.5242 H       1  LIG   0.0807   0.1000 
34    H14      1.5292  -40.4423   20.1061 H       1  LIG   0.0733   0.1000 
@<TRIPOS>BOND
1     2     1     ar
2     3     2     1
3     4     2     ar
4     5     4     1
5     6     4     ar
6     7     6     ar
7     8     7     1
8     9     8     1
9     10    8     1
10    11    10    1
11    12    11    ar
12    13    12    1
13    14    12    ar
14    15    14    1
15    16    14    ar
16    17    16    1
17    18    16    ar
18    19    11    ar
19    19    18    ar
20    20    19    1
21    21    1     ar
22    21    7     ar
23    21    20    1
24    22    6     1
25    23    22    1
26    24    22    1
27    25    22    1
28    26    10    2
29    27    20    1
30    28    27    1
31    29    27    1
32    30    29    1
33    31    29    1
34    32    27    1
35    32    29    1
36    33    32    1
37    34    32    1
@<TRIPOS>SUBSTRUCTURE
1   LIG    1    
 
########## Name        : 1VRT.lig
########## Description : AM1BCC_CHARGES =  -0.0002 ORIGINAL_CHARGES =  -0.0000

@<TRIPOS>MOLECULE
1VRT.lig
34    37    1     0     0    
SMALL
USER_CHARGES
@<TRIPOS>ATOM
1     N1       4.0540  -36.9310   22.2210 N.ar    1  LIG  -0.6650  -0.6200 
2     C1       4.9660  -36.2380   22.9390 C.ar    1  LIG   0.3947   0.1600 
3     H1       6.0082  -36.2811   22.6707 H       1  LIG   0.0281   0.1500 
4     C2       4.6240  -35.4500   24.0360 C.ar    1  LIG  -0.2334  -0.1500 
5     H2       5.3884  -34.9151   24.5740 H       1  LIG   0.1480   0.1500 
6     C3       3.3050  -35.3690   24.4150 C.ar    1  LIG  -0.0698  -0.1435 
7     C4       2.3460  -36.0770   23.6860 C.ar    1  LIG  -0.0398   0.1170 
8     N2       0.9890  -36.0280   24.1030 N.am    1  LIG  -0.4596  -0.5470 
9     H3       0.7643  -35.9928   25.0860 H       1  LIG   0.3311   0.3700 
10    C5      -0.1450  -36.0180   23.4080 C.2     1  LIG   0.7361   0.5438 
11    C6      -0.1190  -36.0770   21.8860 C.ar    1  LIG  -0.2550   0.0862 
12    C7      -1.1230  -35.3990   21.1890 C.ar    1  LIG  -0.0321  -0.1500 
13    H4      -1.7552  -34.6955   21.7041 H       1  LIG   0.1623   0.1500 
14    C8      -1.2960  -35.6300   19.8690 C.ar    1  LIG  -0.2723  -0.1500 
15    H5      -2.0662  -35.1073   19.3273 H       1  LIG   0.1522   0.1500 
16    C9      -0.4670  -36.5450   19.2400 C.ar    1  LIG   0.4373   0.1600 
17    H6      -0.5947  -36.7554   18.1915 H       1  LIG   0.0280   0.1500 
18    N3       0.5220  -37.2120   19.8740 N.ar    1  LIG  -0.6893  -0.6200 
19    C10      0.7040  -36.9790   21.1800 C.ar    1  LIG   0.6480   0.4100 
20    N4       1.7670  -37.6730   21.8260 N.pl3   1  LIG  -0.6924  -0.3690 
21    C11      2.7540  -36.8570   22.5840 C.ar    1  LIG   0.5805   0.4100 
22    C12      2.9040  -34.5090   25.6010 C.3     1  LIG  -0.0620   0.1435 
23    H7       2.2235  -33.7630   25.2820 H       1  LIG   0.0570   0.0000 
24    H8       2.4436  -35.1154   26.3371 H       1  LIG   0.0495   0.0000 
25    H9       3.7654  -34.0491   26.0108 H       1  LIG   0.0519   0.0000 
26    O1      -1.2400  -35.9060   23.9770 O.2     1  LIG  -0.6361  -0.5700 
27    C13      2.3440  -38.7570   21.0360 C.3     1  LIG   0.1354   0.0690 
28    H10      3.1238  -38.3754   20.4296 H       1  LIG   0.0981   0.1000 
29    C14      2.9380  -39.8900   21.8010 C.3     1  LIG  -0.1181  -0.2000 
30    H11      3.8890  -40.1268   21.3997 H       1  LIG   0.0732   0.1000 
31    H12      3.0430  -39.6129   22.8177 H       1  LIG   0.0789   0.1000 
32    C15      1.6390  -40.0610   21.0880 C.3     1  LIG  -0.1196  -0.2000 
33    H13      0.6832  -39.9283   21.5242 H       1  LIG   0.0807   0.1000 
34    H14      1.5292  -40.4423   20.1061 H       1  LIG   0.0733   0.1000 
@<TRIPOS>BOND
1     2     1     ar
2     3     2     1
3     4     2     ar
4     5     4     1
5     6     4     ar
6     7     6     ar
7     8     7     1
8     9     8     1
9     10    8     1
10    11    10    1
11    12    11    ar
12    13    12    1
13    14    12    ar
14    15    14    1
15    16    14    ar
16    17    16    1
17    18    16    ar
18    19    11    ar
19    19    18    ar
20    20    19    1
21    21    1     ar
22    21    7     ar
23    21    20    1
24    22    6     1
25    23    22    1
26    24    22    1
27    25    22    1
28    26    10    2
29    27    20    1
30    28    27    1
31    29    27    1
32    30    29    1
33    31    29    1
34    32    27    1
35    32    29    1
36    33    32    1
37    34    32    1
@<TRIPOS>SUBSTRUCTURE
1   LIG    1    
 
########## Name        : 1VRT.lig
########## Description : AM1BCC_CHARGES =  -0.0002 ORIGINAL_CHARGES =  -0.0000

@<TRIPOS>MOLECULE
1VRT.lig
34    37    1     0     0    
SMALL
USER_CHARGES
@<TRIPOS>ATOM
1     N1       4.0540  -36.9310   22.2210 N.ar    1  LIG  -0.6650  -0.6200 
2     C1       4.9660  -36.2380   22.9390 C.ar    1  LIG   0.3947   0.1600 
3     H1       6.0082  -36.2811   22.6707 H       1  LIG   0.0281   0.1500 
4     C2       4.6240  -35.4500   24.0360 C.ar    1  LIG  -0.2334  -0.1500 
5     H2       5.3884  -34.9151   24.5740 H       1  LIG   0.1480   0.1500 
6     C3       3.3050  -35.3690   24.4150 C.ar    1  LIG  -0.0698  -0.1435 
7     C4       2.3460  -36.0770   23.6860 C.ar    1  LIG  -0.0398   0.1170 
8     N2       0.9890  -36.0280   24.1030 N.am    1  LIG  -0.4596  -0.5470 
9     H3       0.7643  -35.9928   25.0860 H       1  LIG   0.3311   0.3700 
10    C5      -0.1450  -36.0180   23.4080 C.2     1  LIG   0.7361   0.5438 
11    C6      -0.1190  -36.0770   21.8860 C.ar    1  LIG  -0.2550   0.0862 
12    C7      -1.1230  -35.3990   21.1890 C.ar    1  LIG  -0.0321  -0.1500 
13    H4      -1.7552  -34.6955   21.7041 H       1  LIG   0.1623   0.1500 
14    C8      -1.2960  -35.6300   19.8690 C.ar    1  LIG  -0.2723  -0.1500 
15    H5      -2.0662  -35.1073   19.3273 H       1  LIG   0.1522   0.1500 
16    C9      -0.4670  -36.5450   19.2400 C.ar    1  LIG   0.4373   0.1600 
17    H6      -0.5947  -36.7554   18.1915 H       1  LIG   0.0280   0.1500 
18    N3       0.5220  -37.2120   19.8740 N.ar    1  LIG  -0.6893  -0.6200 
19    C10      0.7040  -36.9790   21.1800 C.ar    1  LIG   0.6480   0.4100 
20    N4       1.7670  -37.6730   21.8260 N.pl3   1  LIG  -0.6924  -0.3690 
21    C11      2.7540  -36.8570   22.5840 C.ar    1  LIG   0.5805   0.4100 
22    C12      2.9040  -34.5090   25.6010 C.3     1  LIG  -0.0620   0.1435 
23    H7       2.2235  -33.7630   25.2820 H       1  LIG   0.0570   0.0000 
24    H8       2.4436  -35.1154   26.3371 H       1  LIG   0.0495   0.0000 
25    H9       3.7654  -34.0491   26.0108 H       1  LIG   0.0519   0.0000 
26    O1      -1.2400  -35.9060   23.9770 O.2     1  LIG  -0.6361  -0.5700 
27    C13      2.3440  -38.7570   21.0360 C.3     1  LIG   0.1354   0.0690 
28    H10      3.1238  -38.3754   20.4296 H       1  LIG   0.0981   0.1000 
29    C14      2.9380  -39.8900   21.8010 C.3     1  LIG  -0.1181  -0.2000 
30    H11      3.8890  -40.1268   21.3997 H       1  LIG   0.0732   0.1000 
31    H12      3.0430  -39.6129   22.8177 H       1  LIG   0.0789   0.1000 
32    C15      1.6390  -40.0610   21.0880 C.3     1  LIG  -0.1196  -0.2000 
33    H13      0.6832  -39.9283   21.5242 H       1  LIG   0.0807   0.1000 
34    H14      1.5292  -40.4423   20.1061 H       1  LIG   0.0733   0.1000 
@<TRIPOS>BOND
1     2     1     ar
2     3     2     1
3     4     2     ar
4     5     4     1
5     6     4     ar
6     7     6     ar
7     8     7     1
8     9     8     1
9     10    8     1
10    11    10    1
11    12    11    ar
12    13    12    1
13    14    12    ar
14    15    14    1
15    16    14    ar
16    17    16    1
17    18    16    ar
18    19    11    ar
19    19    18    ar
20    20    19    1
21    21    1     ar
22    21    7     ar
23    21    20    1
24    22    6     1
25    23    22    1
26    24    22    1
27    25    22    1
28    26    10    2
29    27    20    1
30    28    27    1
31    29    27    1
32    30    29    1
33    31    29    1
34    32    27    1
35    32    29    1
36    33    32    1
37    34    32    1
@<TRIPOS>SUBSTRUCTURE
1   LIG    1    
 
########## Name        : 1VRT.lig
########## Description : AM1BCC_CHARGES =  -0.0002 ORIGINAL_CHARGES =  -0.0000

@<TRIPOS>MOLECULE
1VRT.lig
34    37    1     0     0    
SMALL
USER_CHARGES
@<TRIPOS>ATOM
1     N1       4.0540  -36.9310   22.2210 N.ar    1  LIG  -0.6650  -0.6200 
2     C1       4.9660  -36.2380   22.9390 C.ar    1  LIG   0.3947   0.1600 
3     H1       6.0082  -36.2811   22.6707 H       1  LIG   0.0281   0.1500 
4     C2       4.6240  -35.4500   24.0360 C.ar    1  LIG  -0.2334  -0.1500 
5     H2       5.3884  -34.9151   24.5740 H       1  LIG   0.1480   0.1500 
6     C3       3.3050  -35.3690   24.4150 C.ar    1  LIG  -0.0698  -0.1435 
7     C4       2.3460  -36.0770   23.6860 C.ar    1  LIG  -0.0398   0.1170 
8     N2       0.9890  -36.0280   24.1030 N.am    1  LIG  -0.4596  -0.5470 
9     H3       0.7643  -35.9928   25.0860 H       1  LIG   0.3311   0.3700 
10    C5      -0.1450  -36.0180   23.4080 C.2     1  LIG   0.7361   0.5438 
11    C6      -0.1190  -36.0770   21.8860 C.ar    1  LIG  -0.2550   0.0862 
12    C7      -1.1230  -35.3990   21.1890 C.ar    1  LIG  -0.0321  -0.1500 
13    H4      -1.7552  -34.6955   21.7041 H       1  LIG   0.1623   0.1500 
14    C8      -1.2960  -35.6300   19.8690 C.ar    1  LIG  -0.2723  -0.1500 
15    H5      -2.0662  -35.1073   19.3273 H       1  LIG   0.1522   0.1500 
16    C9      -0.4670  -36.5450   19.2400 C.ar    1  LIG   0.4373   0.1600 
17    H6      -0.5947  -36.7554   18.1915 H       1  LIG   0.0280   0.1500 
18    N3       0.5220  -37.2120   19.8740 N.ar    1  LIG  -0.6893  -0.6200 
19    C10      0.7040  -36.9790   21.1800 C.ar    1  LIG   0.6480   0.4100 
20    N4       1.7670  -37.6730   21.8260 N.pl3   1  LIG  -0.6924  -0.3690 
21    C11      2.7540  -36.8570   22.5840 C.ar    1  LIG   0.5805   0.4100 
22    C12      2.9040  -34.5090   25.6010 C.3     1  LIG  -0.0620   0.1435 
23    H7       2.2235  -33.7630   25.2820 H       1  LIG   0.0570   0.0000 
24    H8       2.4436  -35.1154   26.3371 H       1  LIG   0.0495   0.0000 
25    H9       3.7654  -34.0491   26.0108 H       1  LIG   0.0519   0.0000 
26    O1      -1.2400  -35.9060   23.9770 O.2     1  LIG  -0.6361  -0.5700 
27    C13      2.3440  -38.7570   21.0360 C.3     1  LIG   0.1354   0.0690 
28    H10      3.1238  -38.3754   20.4296 H       1  LIG   0.0981   0.1000 
29    C14      2.9380  -39.8900   21.8010 C.3     1  LIG  -0.1181  -0.2000 
30    H11      3.8890  -40.1268   21.3997 H       1  LIG   0.0732   0.1000 
31    H12      3.0430  -39.6129   22.8177 H       1  LIG   0.0789   0.1000 
32    C15      1.6390  -40.0610   21.0880 C.3     1  LIG  -0.1196  -0.2000 
33    H13      0.6832  -39.9283   21.5242 H       1  LIG   0.0807   0.1000 
34    H14      1.5292  -40.4423   20.1061 H       1  LIG   0.0733   0.1000 
@<TRIPOS>BOND
1     2     1     ar
2     3     2     1
3     4     2     ar
4     5     4     1
5     6     4     ar
6     7     6     ar
7     8     7     1
8     9     8     1
9     10    8     1
10    11    10    1
11    12    11    ar
12    13    12    1
13    14    12    ar
14    15    14    1
15    16    14    ar
16    17    16    1
17    18    16    ar
18    19    11    ar
19    19    18    ar
20    20    19    1
21    21    1     ar
22    21    7     ar
23    21    20    1
24    22    6     1
25    23    22    1
26    24    22    1
27    25    22    1
28    26    10    2
29    27    20    1
30    28    27    1
31    29    27    1
32    30    29    1
33    31    29    1
34    32    27    1
35    32    29    1
36    33    32    1
37    34    32    1
@<TRIPOS>SUBSTRUCTURE
1   LIG    1    
 
########## Name        : 1VRT.lig
########## Description : AM1BCC_CHARGES =  -0.0002 ORIGINAL_CHARGES =  -0.0000

@<TRIPOS>MOLECULE
1VRT.lig
34    37    1     0     0    
SMALL
USER_CHARGES
@<TRIPOS>ATOM
1     N1       4.0540  -36.9310   22.2210 N.ar    1  LIG  -0.6650  -0.6200 
2     C1       4.9660  -36.2380   22.9390 C.ar    1  LIG   0.3947   0.1600 
3     H1       6.0082  -36.2811   22.6707 H       1  LIG   0.0281   0.1500 
4     C2       4.6240  -35.4500   24.0360 C.ar    1  LIG  -0.2334  -0.1500 
5     H2       5.3884  -34.9151   24.5740 H       1  LIG   0.1480   0.1500 
6     C3       3.3050  -35.3690   24.4150 C.ar    1  LIG  -0.0698  -0.1435 
7     C4       2.3460  -36.0770   23.6860 C.ar    1  LIG  -0.0398   0.1170 
8     N2       0.9890  -36.0280   24.1030 N.am    1  LIG  -0.4596  -0.5470 
9     H3       0.7643  -35.9928   25.0860 H       1  LIG   0.3311   0.3700 
10    C5      -0.1450  -36.0180   23.4080 C.2     1  LIG   0.7361   0.5438 
11    C6      -0.1190  -36.0770   21.8860 C.ar    1  LIG  -0.2550   0.0862 
12    C7      -1.1230  -35.3990   21.1890 C.ar    1  LIG  -0.0321  -0.1500 
13    H4      -1.7552  -34.6955   21.7041 H       1  LIG   0.1623   0.1500 
14    C8      -1.2960  -35.6300   19.8690 C.ar    1  LIG  -0.2723  -0.1500 
15    H5      -2.0662  -35.1073   19.3273 H       1  LIG   0.1522   0.1500 
16    C9      -0.4670  -36.5450   19.2400 C.ar    1  LIG   0.4373   0.1600 
17    H6      -0.5947  -36.7554   18.1915 H       1  LIG   0.0280   0.1500 
18    N3       0.5220  -37.2120   19.8740 N.ar    1  LIG  -0.6893  -0.6200 
19    C10      0.7040  -36.9790   21.1800 C.ar    1  LIG   0.6480   0.4100 
20    N4       1.7670  -37.6730   21.8260 N.pl3   1  LIG  -0.6924  -0.3690 
21    C11      2.7540  -36.8570   22.5840 C.ar    1  LIG   0.5805   0.4100 
22    C12      2.9040  -34.5090   25.6010 C.3     1  LIG  -0.0620   0.1435 
23    H7       2.2235  -33.7630   25.2820 H       1  LIG   0.0570   0.0000 
24    H8       2.4436  -35.1154   26.3371 H       1  LIG   0.0495   0.0000 
25    H9       3.7654  -34.0491   26.0108 H       1  LIG   0.0519   0.0000 
26    O1      -1.2400  -35.9060   23.9770 O.2     1  LIG  -0.6361  -0.5700 
27    C13      2.3440  -38.7570   21.0360 C.3     1  LIG   0.1354   0.0690 
28    H10      3.1238  -38.3754   20.4296 H       1  LIG   0.0981   0.1000 
29    C14      2.9380  -39.8900   21.8010 C.3     1  LIG  -0.1181  -0.2000 
30    H11      3.8890  -40.1268   21.3997 H       1  LIG   0.0732   0.1000 
31    H12      3.0430  -39.6129   22.8177 H       1  LIG   0.0789   0.1000 
32    C15      1.6390  -40.0610   21.0880 C.3     1  LIG  -0.1196  -0.2000 
33    H13      0.6832  -39.9283   21.5242 H       1  LIG   0.0807   0.1000 
34    H14      1.5292  -40.4423   20.1061 H       1  LIG   0.0733   0.1000 
@<TRIPOS>BOND
1     2     1     ar
2     3     2     1
3     4     2     ar
4     5     4     1
5     6     4     ar
6     7     6     ar
7     8     7     1
8     9     8     1
9     10    8     1
10    11    10    1
11    12    11    ar
12    13    12    1
13    14    12    ar
14    15    14    1
15    16    14    ar
16    17    16    1
17    18    16    ar
18    19    11    ar
19    19    18    ar
20    20    19    1
21    21    1     ar
22    21    7     ar
23    21    20    1
24    22    6     1
25    23    22    1
26    24    22    1
27    25    22    1
28    26    10    2
29    27    20    1
30    28    27    1
31    29    27    1
32    30    29    1
33    31    29    1
34    32    27    1
35    32    29    1
36    33    32    1
37    34    32    1
@<TRIPOS>SUBSTRUCTURE
1   LIG    1    
 
########## Name        : 1VRT.lig
########## Description : AM1BCC_CHARGES =  -0.0002 ORIGINAL_CHARGES =  -0.0000

@<TRIPOS>MOLECULE
1VRT.lig
34    37    1     0     0    
SMALL
USER_CHARGES
@<TRIPOS>ATOM
1     N1       4.0540  -36.9310   22.2210 N.ar    1  LIG  -0.6650  -0.6200 
2     C1       4.9660  -36.2380   22.9390 C.ar    1  LIG   0.3947   0.1600 
3     H1       6.0082  -36.2811   22.6707 H       1  LIG   0.0281   0.1500 
4     C2       4.6240  -35.4500   24.0360 C.ar    1  LIG  -0.2334  -0.1500 
5     H2       5.3884  -34.9151   24.5740 H       1  LIG   0.1480   0.1500 
6     C3       3.3050  -35.3690   24.4150 C.ar    1  LIG  -0.0698  -0.1435 
7     C4       2.3460  -36.0770   23.6860 C.ar    1  LIG  -0.0398   0.1170 
8     N2       0.9890  -36.0280   24.1030 N.am    1  LIG  -0.4596  -0.5470 
9     H3       0.7643  -35.9928   25.0860 H       1  LIG   0.3311   0.3700 
10    C5      -0.1450  -36.0180   23.4080 C.2     1  LIG   0.7361   0.5438 
11    C6      -0.1190  -36.0770   21.8860 C.ar    1  LIG  -0.2550   0.0862 
12    C7      -1.1230  -35.3990   21.1890 C.ar    1  LIG  -0.0321  -0.1500 
13    H4      -1.7552  -34.6955   21.7041 H       1  LIG   0.1623   0.1500 
14    C8      -1.2960  -35.6300   19.8690 C.ar    1  LIG  -0.2723  -0.1500 
15    H5      -2.0662  -35.1073   19.3273 H       1  LIG   0.1522   0.1500 
16    C9      -0.4670  -36.5450   19.2400 C.ar    1  LIG   0.4373   0.1600 
17    H6      -0.5947  -36.7554   18.1915 H       1  LIG   0.0280   0.1500 
18    N3       0.5220  -37.2120   19.8740 N.ar    1  LIG  -0.6893  -0.6200 
19    C10      0.7040  -36.9790   21.1800 C.ar    1  LIG   0.6480   0.4100 
20    N4       1.7670  -37.6730   21.8260 N.pl3   1  LIG  -0.6924  -0.3690 
21    C11      2.7540  -36.8570   22.5840 C.ar    1  LIG   0.5805   0.4100 
22    C12      2.9040  -34.5090   25.6010 C.3     1  LIG  -0.0620   0.1435 
23    H7       2.2235  -33.7630   25.2820 H       1  LIG   0.0570   0.0000 
24    H8       2.4436  -35.1154   26.3371 H       1  LIG   0.0495   0.0000 
25    H9       3.7654  -34.0491   26.0108 H       1  LIG   0.0519   0.0000 
26    O1      -1.2400  -35.9060   23.9770 O.2     1  LIG  -0.6361  -0.5700 
27    C13      2.3440  -38.7570   21.0360 C.3     1  LIG   0.1354   0.0690 
28    H10      3.1238  -38.3754   20.4296 H       1  LIG   0.0981   0.1000 
29    C14      2.9380  -39.8900   21.8010 C.3     1  LIG  -0.1181  -0.2000 
30    H11      3.8890  -40.1268   21.3997 H       1  LIG   0.0732   0.1000 
31    H12      3.0430  -39.6129   22.8177 H       1  LIG   0.0789   0.1000 
32    C15      1.6390  -40.0610   21.0880 C.3     1  LIG  -0.1196  -0.2000 
33    H13      0.6832  -39.9283   21.5242 H       1  LIG   0.0807   0.1000 
34    H14      1.5292  -40.4423   20.1061 H       1  LIG   0.0733   0.1000 
@<TRIPOS>BOND
1     2     1     ar
2     3     2     1
3     4     2     ar
4     5     4     1
5     6     4     ar
6     7     6     ar
7     8     7     1
8     9     8     1
9     10    8     1
10    11    10    1
11    12    11    ar
12    13    12    1
13    14    12    ar
14    15    14    1
15    16    14    ar
16    17    16    1
17    18    16    ar
18    19    11    ar
19    19    18    ar
20    20    19    1
21    21    1     ar
22    21    7     ar
23    21    20    1
24    22    6     1
25    23    22    1
26    24    22    1
27    25    22    1
28    26    10    2
29    27    20    1
30    28    27    1
31    29    27    1
32    30    29    1
33    31    29    1
34    32    27    1
35    32    29    1
36    33    32    1
37    34    32    1
@<TRIPOS>SUBSTRUCTURE
1   LIG    1    
 
########## Name        : 1VRT.lig
########## Description : AM1BCC_CHARGES =  -0.0002 ORIGINAL_CHARGES =  -0.0000

@<TRIPOS>MOLECULE
1VRT.lig
34    37    1     0     0    
SMALL
USER_CHARGES
@<TRIPOS>ATOM
1     N1       4.0540  -36.9310   22.2210 N.ar    1  LIG  -0.6650  -0.6200 
2     C1       4.9660  -36.2380   22.9390 C.ar    1  LIG   0.3947   0.1600 
3     H1       6.0082  -36.2811   22.6707 H       1  LIG   0.0281   0.1500 
4     C2       4.6240  -35.4500   24.0360 C.ar    1  LIG  -0.2334  -0.1500 
5     H2       5.3884  -34.9151   24.5740 H       1  LIG   0.1480   0.1500 
6     C3       3.3050  -35.3690   24.4150 C.ar    1  LIG  -0.0698  -0.1435 
7     C4       2.3460  -36.0770   23.6860 C.ar    1  LIG  -0.0398   0.1170 
8     N2       0.9890  -36.0280   24.1030 N.am    1  LIG  -0.4596  -0.5470 
9     H3       0.7643  -35.9928   25.0860 H       1  LIG   0.3311   0.3700 
10    C5      -0.1450  -36.0180   23.4080 C.2     1  LIG   0.7361   0.5438 
11    C6      -0.1190  -36.0770   21.8860 C.ar    1  LIG  -0.2550   0.0862 
12    C7      -1.1230  -35.3990   21.1890 C.ar    1  LIG  -0.0321  -0.1500 
13    H4      -1.7552  -34.6955   21.7041 H       1  LIG   0.1623   0.1500 
14    C8      -1.2960  -35.6300   19.8690 C.ar    1  LIG  -0.2723  -0.1500 
15    H5      -2.0662  -35.1073   19.3273 H       1  LIG   0.1522   0.1500 
16    C9      -0.4670  -36.5450   19.2400 C.ar    1  LIG   0.4373   0.1600 
17    H6      -0.5947  -36.7554   18.1915 H       1  LIG   0.0280   0.1500 
18    N3       0.5220  -37.2120   19.8740 N.ar    1  LIG  -0.6893  -0.6200 
19    C10      0.7040  -36.9790   21.1800 C.ar    1  LIG   0.6480   0.4100 
20    N4       1.7670  -37.6730   21.8260 N.pl3   1  LIG  -0.6924  -0.3690 
21    C11      2.7540  -36.8570   22.5840 C.ar    1  LIG   0.5805   0.4100 
22    C12      2.9040  -34.5090   25.6010 C.3     1  LIG  -0.0620   0.1435 
23    H7       2.2235  -33.7630   25.2820 H       1  LIG   0.0570   0.0000 
24    H8       2.4436  -35.1154   26.3371 H       1  LIG   0.0495   0.0000 
25    H9       3.7654  -34.0491   26.0108 H       1  LIG   0.0519   0.0000 
26    O1      -1.2400  -35.9060   23.9770 O.2     1  LIG  -0.6361  -0.5700 
27    C13      2.3440  -38.7570   21.0360 C.3     1  LIG   0.1354   0.0690 
28    H10      3.1238  -38.3754   20.4296 H       1  LIG   0.0981   0.1000 
29    C14      2.9380  -39.8900   21.8010 C.3     1  LIG  -0.1181  -0.2000 
30    H11      3.8890  -40.1268   21.3997 H       1  LIG   0.0732   0.1000 
31    H12      3.0430  -39.6129   22.8177 H       1  LIG   0.0789   0.1000 
32    C15      1.6390  -40.0610   21.0880 C.3     1  LIG  -0.1196  -0.2000 
33    H13      0.6832  -39.9283   21.5242 H       1  LIG   0.0807   0.1000 
34    H14      1.5292  -40.4423   20.1061 H       1  LIG   0.0733   0.1000 
@<TRIPOS>BOND
1     2     1     ar
2     3     2     1
3     4     2     ar
4     5     4     1
5     6     4     ar
6     7     6     ar
7     8     7     1
8     9     8     1
9     10    8     1
10    11    10    1
11    12    11    ar
12    13    12    1
13    14    12    ar
14    15    14    1
15    16    14    ar
16    17    16    1
17    18    16    ar
18    19    11    ar
19    19    18    ar
20    20    19    1
21    21    1     ar
22    21    7     ar
23    21    20    1
24    22    6     1
25    23    22    1
26    24    22    1
27    25    22    1
28    26    10    2
29    27    20    1
30    28    27    1
31    29    27    1
32    30    29    1
33    31    29    1
34    32    27    1
35    32    29    1
36    33    32    1
37    34    32    1
@<TRIPOS>SUBSTRUCTURE
1   LIG    1    
 
########## Name        : 1VRT.lig
########## Description : AM1BCC_CHARGES =  -0.0002 ORIGINAL_CHARGES =  -0.0000

@<TRIPOS>MOLECULE
1VRT.lig
34    37    1     0     0    
SMALL
USER_CHARGES
@<TRIPOS>ATOM
1     N1       4.0540  -36.9310   22.2210 N.ar    1  LIG  -0.6650  -0.6200 
2     C1       4.9660  -36.2380   22.9390 C.ar    1  LIG   0.3947   0.1600 
3     H1       6.0082  -36.2811   22.6707 H       1  LIG   0.0281   0.1500 
4     C2       4.6240  -35.4500   24.0360 C.ar    1  LIG  -0.2334  -0.1500 
5     H2       5.3884  -34.9151   24.5740 H       1  LIG   0.1480   0.1500 
6     C3       3.3050  -35.3690   24.4150 C.ar    1  LIG  -0.0698  -0.1435 
7     C4       2.3460  -36.0770   23.6860 C.ar    1  LIG  -0.0398   0.1170 
8     N2       0.9890  -36.0280   24.1030 N.am    1  LIG  -0.4596  -0.5470 
9     H3       0.7643  -35.9928   25.0860 H       1  LIG   0.3311   0.3700 
10    C5      -0.1450  -36.0180   23.4080 C.2     1  LIG   0.7361   0.5438 
11    C6      -0.1190  -36.0770   21.8860 C.ar    1  LIG  -0.2550   0.0862 
12    C7      -1.1230  -35.3990   21.1890 C.ar    1  LIG  -0.0321  -0.1500 
13    H4      -1.7552  -34.6955   21.7041 H       1  LIG   0.1623   0.1500 
14    C8      -1.2960  -35.6300   19.8690 C.ar    1  LIG  -0.2723  -0.1500 
15    H5      -2.0662  -35.1073   19.3273 H       1  LIG   0.1522   0.1500 
16    C9      -0.4670  -36.5450   19.2400 C.ar    1  LIG   0.4373   0.1600 
17    H6      -0.5947  -36.7554   18.1915 H       1  LIG   0.0280   0.1500 
18    N3       0.5220  -37.2120   19.8740 N.ar    1  LIG  -0.6893  -0.6200 
19    C10      0.7040  -36.9790   21.1800 C.ar    1  LIG   0.6480   0.4100 
20    N4       1.7670  -37.6730   21.8260 N.pl3   1  LIG  -0.6924  -0.3690 
21    C11      2.7540  -36.8570   22.5840 C.ar    1  LIG   0.5805   0.4100 
22    C12      2.9040  -34.5090   25.6010 C.3     1  LIG  -0.0620   0.1435 
23    H7       2.2235  -33.7630   25.2820 H       1  LIG   0.0570   0.0000 
24    H8       2.4436  -35.1154   26.3371 H       1  LIG   0.0495   0.0000 
25    H9       3.7654  -34.0491   26.0108 H       1  LIG   0.0519   0.0000 
26    O1      -1.2400  -35.9060   23.9770 O.2     1  LIG  -0.6361  -0.5700 
27    C13      2.3440  -38.7570   21.0360 C.3     1  LIG   0.1354   0.0690 
28    H10      3.1238  -38.3754   20.4296 H       1  LIG   0.0981   0.1000 
29    C14      2.9380  -39.8900   21.8010 C.3     1  LIG  -0.1181  -0.2000 
30    H11      3.8890  -40.1268   21.3997 H       1  LIG   0.0732   0.1000 
31    H12      3.0430  -39.6129   22.8177 H       1  LIG   0.0789   0.1000 
32    C15      1.6390  -40.0610   21.0880 C.3     1  LIG  -0.1196  -0.2000 
33    H13      0.6832  -39.9283   21.5242 H       1  LIG   0.0807   0.1000 
34    H14      1.5292  -40.4423   20.1061 H       1  LIG   0.0733   0.1000 
@<TRIPOS>BOND
1     2     1     ar
2     3     2     1
3     4     2     ar
4     5     4     1
5     6     4     ar
6     7     6     ar
7     8     7     1
8     9     8     1
9     10    8     1
10    11    10    1
11    12    11    ar
12    13    12    1
13    14    12    ar
14    15    14    1
15    16    14    ar
16    17    16    1
17    18    16    ar
18    19    11    ar
19    19    18    ar
20    20    19    1
21    21    1     ar
22    21    7     ar
23    21    20    1
24    22    6     1
25    23    22    1
26    24    22    1
27    25    22    1
28    26    10    2
29    27    20    1
30    28    27    1
31    29    27    1
32    30    29    1
33    31    29    1
34    32    27    1
35    32    29    1
36    33    32    1
37    34    32    1
@<TRIPOS>SUBSTRUCTURE
1   LIG    1    
 
########## Name        : 1VRT.lig
########## Description : AM1BCC_CHARGES =  -0.0002 ORIGINAL_CHARGES =  -0.0000

@<TRIPOS>MOLECULE
1VRT.lig
34    37    1     0     0    
SMALL
USER_CHARGES
@<TRIPOS>ATOM
1     N1       4.0540  -36.9310   22.2210 N.ar    1  LIG  -0.6650  -0.6200 
2     C1       4.9660  -36.2380   22.9390 C.ar    1  LIG   0.3947   0.1600 
3     H1       6.0082  -36.2811   22.6707 H       1  LIG   0.0281   0.1500 
4     C2       4.6240  -35.4500   24.0360 C.ar    1  LIG  -0.2334  -0.1500 
5     H2       5.3884  -34.9151   24.5740 H       1  LIG   0.1480   0.1500 
6     C3       3.3050  -35.3690   24.4150 C.ar    1  LIG  -0.0698  -0.1435 
7     C4       2.3460  -36.0770   23.6860 C.ar    1  LIG  -0.0398   0.1170 
8     N2       0.9890  -36.0280   24.1030 N.am    1  LIG  -0.4596  -0.5470 
9     H3       0.7643  -35.9928   25.0860 H       1  LIG   0.3311   0.3700 
10    C5      -0.1450  -36.0180   23.4080 C.2     1  LIG   0.7361   0.5438 
11    C6      -0.1190  -36.0770   21.8860 C.ar    1  LIG  -0.2550   0.0862 
12    C7      -1.1230  -35.3990   21.1890 C.ar    1  LIG  -0.0321  -0.1500 
13    H4      -1.7552  -34.6955   21.7041 H       1  LIG   0.1623   0.1500 
14    C8      -1.2960  -35.6300   19.8690 C.ar    1  LIG  -0.2723  -0.1500 
15    H5      -2.0662  -35.1073   19.3273 H       1  LIG   0.1522   0.1500 
16    C9      -0.4670  -36.5450   19.2400 C.ar    1  LIG   0.4373   0.1600 
17    H6      -0.5947  -36.7554   18.1915 H       1  LIG   0.0280   0.1500 
18    N3       0.5220  -37.2120   19.8740 N.ar    1  LIG  -0.6893  -0.6200 
19    C10      0.7040  -36.9790   21.1800 C.ar    1  LIG   0.6480   0.4100 
20    N4       1.7670  -37.6730   21.8260 N.pl3   1  LIG  -0.6924  -0.3690 
21    C11      2.7540  -36.8570   22.5840 C.ar    1  LIG   0.5805   0.4100 
22    C12      2.9040  -34.5090   25.6010 C.3     1  LIG  -0.0620   0.1435 
23    H7       2.2235  -33.7630   25.2820 H       1  LIG   0.0570   0.0000 
24    H8       2.4436  -35.1154   26.3371 H       1  LIG   0.0495   0.0000 
25    H9       3.7654  -34.0491   26.0108 H       1  LIG   0.0519   0.0000 
26    O1      -1.2400  -35.9060   23.9770 O.2     1  LIG  -0.6361  -0.5700 
27    C13      2.3440  -38.7570   21.0360 C.3     1  LIG   0.1354   0.0690 
28    H10      3.1238  -38.3754   20.4296 H       1  LIG   0.0981   0.1000 
29    C14      2.9380  -39.8900   21.8010 C.3     1  LIG  -0.1181  -0.2000 
30    H11      3.8890  -40.1268   21.3997 H       1  LIG   0.0732   0.1000 
31    H12      3.0430  -39.6129   22.8177 H       1  LIG   0.0789   0.1000 
32    C15      1.6390  -40.0610   21.0880 C.3     1  LIG  -0.1196  -0.2000 
33    H13      0.6832  -39.9283   21.5242 H       1  LIG   0.0807   0.1000 
34    H14      1.5292  -40.4423   20.1061 H       1  LIG   0.0733   0.1000 
@<TRIPOS>BOND
1     2     1     ar
2     3     2     1
3     4     2     ar
4     5     4     1
5     6     4     ar
6     7     6     ar
7     8     7     1
8     9     8     1
9     10    8     1
10    11    10    1
11    12    11    ar
12    13    12    1
13    14    12    ar
14    15    14    1
15    16    14    ar
16    17    16    1
17    18    16    ar
18    19    11    ar
19    19    18    ar
20    20    19    1
21    21    1     ar
22    21    7     ar
23    21    20    1
24    22    6     1
25    23    22    1
26    24    22    1
27    25    22    1
28    26    10    2
29    27    20    1
30    28    27    1
31    29    27    1
32    30    29    1
33    31    29    1
34    32    27    1
35    32    29    1
36    33    32    1
37    34    32    1
@<TRIPOS>SUBSTRUCTURE
1   LIG    1    
 
########## Name        : 1VRT.lig
########## Description : AM1BCC_CHARGES =  -0.0002 ORIGINAL_CHARGES =  -0.0000

@<TRIPOS>MOLECULE
1VRT.lig
34    37    1     0     0    
SMALL
USER_CHARGES
@<TRIPOS>ATOM
1     N1       4.0540  -36.9310   22.2210 N.ar    1  LIG  -0.6650  -0.6200 
2     C1       4.9660  -36.2380   22.9390 C.ar    1  LIG   0.3947   0.1600 
3     H1       6.0082  -36.2811   22.6707 H       1  LIG   0.0281   0.1500 
4     C2       4.6240  -35.4500   24.0360 C.ar    1  LIG  -0.2334  -0.1500 
5     H2       5.3884  -34.9151   24.5740 H       1  LIG   0.1480   0.1500 
6     C3       3.3050  -35.3690   24.4150 C.ar    1  LIG  -0.0698  -0.1435 
7     C4       2.3460  -36.0770   23.6860 C.ar    1  LIG  -0.0398   0.1170 
8     N2       0.9890  -36.0280   24.1030 N.am    1  LIG  -0.4596  -0.5470 
9     H3       0.7643  -35.9928   25.0860 H       1  LIG   0.3311   0.3700 
10    C5      -0.1450  -36.0180   23.4080 C.2     1  LIG   0.7361   0.5438 
11    C6      -0.1190  -36.0770   21.8860 C.ar    1  LIG  -0.2550   0.0862 
12    C7      -1.1230  -35.3990   21.1890 C.ar    1  LIG  -0.0321  -0.1500 
13    H4      -1.7552  -34.6955   21.7041 H       1  LIG   0.1623   0.1500 
14    C8      -1.2960  -35.6300   19.8690 C.ar    1  LIG  -0.2723  -0.1500 
15    H5      -2.0662  -35.1073   19.3273 H       1  LIG   0.1522   0.1500 
16    C9      -0.4670  -36.5450   19.2400 C.ar    1  LIG   0.4373   0.1600 
17    H6      -0.5947  -36.7554   18.1915 H       1  LIG   0.0280   0.1500 
18    N3       0.5220  -37.2120   19.8740 N.ar    1  LIG  -0.6893  -0.6200 
19    C10      0.7040  -36.9790   21.1800 C.ar    1  LIG   0.6480   0.4100 
20    N4       1.7670  -37.6730   21.8260 N.pl3   1  LIG  -0.6924  -0.3690 
21    C11      2.7540  -36.8570   22.5840 C.ar    1  LIG   0.5805   0.4100 
22    C12      2.9040  -34.5090   25.6010 C.3     1  LIG  -0.0620   0.1435 
23    H7       2.2235  -33.7630   25.2820 H       1  LIG   0.0570   0.0000 
24    H8       2.4436  -35.1154   26.3371 H       1  LIG   0.0495   0.0000 
25    H9       3.7654  -34.0491   26.0108 H       1  LIG   0.0519   0.0000 
26    O1      -1.2400  -35.9060   23.9770 O.2     1  LIG  -0.6361  -0.5700 
27    C13      2.3440  -38.7570   21.0360 C.3     1  LIG   0.1354   0.0690 
28    H10      3.1238  -38.3754   20.4296 H       1  LIG   0.0981   0.1000 
29    C14      2.9380  -39.8900   21.8010 C.3     1  LIG  -0.1181  -0.2000 
30    H11      3.8890  -40.1268   21.3997 H       1  LIG   0.0732   0.1000 
31    H12      3.0430  -39.6129   22.8177 H       1  LIG   0.0789   0.1000 
32    C15      1.6390  -40.0610   21.0880 C.3     1  LIG  -0.1196  -0.2000 
33    H13      0.6832  -39.9283   21.5242 H       1  LIG   0.0807   0.1000 
34    H14      1.5292  -40.4423   20.1061 H       1  LIG   0.0733   0.1000 
@<TRIPOS>BOND
1     2     1     ar
2     3     2     1
3     4     2     ar
4     5     4     1
5     6     4     ar
6     7     6     ar
7     8     7     1
8     9     8     1
9     10    8     1
10    11    10    1
11    12    11    ar
12    13    12    1
13    14    12    ar
14    15    14    1
15    16    14    ar
16    17    16    1
17    18    16    ar
18    19    11    ar
19    19    18    ar
20    20    19    1
21    21    1     ar
22    21    7     ar
23    21    20    1
24    22    6     1
25    23    22    1
26    24    22    1
27    25    22    1
28    26    10    2
29    27    20    1
30    28    27    1
31    29    27    1
32    30    29    1
33    31    29    1
34    32    27    1
35    32    29    1
36    33    32    1
37    34    32    1
@<TRIPOS>SUBSTRUCTURE
1   LIG    1    
 
########## Name        : 1VRT.lig
########## Description : AM1BCC_CHARGES =  -0.0002 ORIGINAL_CHARGES =  -0.0000

@<TRIPOS>MOLECULE
1VRT.lig
34    37    1     0     0    
SMALL
USER_CHARGES
@<TRIPOS>ATOM
1     N1       4.0540  -36.9310   22.2210 N.ar    1  LIG  -0.6650  -0.6200 
2     C1       4.9660  -36.2380   22.9390 C.ar    1  LIG   0.3947   0.1600 
3     H1       6.0082  -36.2811   22.6707 H       1  LIG   0.0281   0.1500 
4     C2       4.6240  -35.4500   24.0360 C.ar    1  LIG  -0.2334  -0.1500 
5     H2       5.3884  -34.9151   24.5740 H       1  LIG   0.1480   0.1500 
6     C3       3.3050  -35.3690   24.4150 C.ar    1  LIG  -0.0698  -0.1435 
7     C4       2.3460  -36.0770   23.6860 C.ar    1  LIG  -0.0398   0.1170 
8     N2       0.9890  -36.0280   24.1030 N.am    1  LIG  -0.4596  -0.5470 
9     H3       0.7643  -35.9928   25.0860 H       1  LIG   0.3311   0.3700 
10    C5      -0.1450  -36.0180   23.4080 C.2     1  LIG   0.7361   0.5438 
11    C6      -0.1190  -36.0770   21.8860 C.ar    1  LIG  -0.2550   0.0862 
12    C7      -1.1230  -35.3990   21.1890 C.ar    1  LIG  -0.0321  -0.1500 
13    H4      -1.7552  -34.6955   21.7041 H       1  LIG   0.1623   0.1500 
14    C8      -1.2960  -35.6300   19.8690 C.ar    1  LIG  -0.2723  -0.1500 
15    H5      -2.0662  -35.1073   19.3273 H       1  LIG   0.1522   0.1500 
16    C9      -0.4670  -36.5450   19.2400 C.ar    1  LIG   0.4373   0.1600 
17    H6      -0.5947  -36.7554   18.1915 H       1  LIG   0.0280   0.1500 
18    N3       0.5220  -37.2120   19.8740 N.ar    1  LIG  -0.6893  -0.6200 
19    C10      0.7040  -36.9790   21.1800 C.ar    1  LIG   0.6480   0.4100 
20    N4       1.7670  -37.6730   21.8260 N.pl3   1  LIG  -0.6924  -0.3690 
21    C11      2.7540  -36.8570   22.5840 C.ar    1  LIG   0.5805   0.4100 
22    C12      2.9040  -34.5090   25.6010 C.3     1  LIG  -0.0620   0.1435 
23    H7       2.2235  -33.7630   25.2820 H       1  LIG   0.0570   0.0000 
24    H8       2.4436  -35.1154   26.3371 H       1  LIG   0.0495   0.0000 
25    H9       3.7654  -34.0491   26.0108 H       1  LIG   0.0519   0.0000 
26    O1      -1.2400  -35.9060   23.9770 O.2     1  LIG  -0.6361  -0.5700 
27    C13      2.3440  -38.7570   21.0360 C.3     1  LIG   0.1354   0.0690 
28    H10      3.1238  -38.3754   20.4296 H       1  LIG   0.0981   0.1000 
29    C14      2.9380  -39.8900   21.8010 C.3     1  LIG  -0.1181  -0.2000 
30    H11      3.8890  -40.1268   21.3997 H       1  LIG   0.0732   0.1000 
31    H12      3.0430  -39.6129   22.8177 H       1  LIG   0.0789   0.1000 
32    C15      1.6390  -40.0610   21.0880 C.3     1  LIG  -0.1196  -0.2000 
33    H13      0.6832  -39.9283   21.5242 H       1  LIG   0.0807   0.1000 
34    H14      1.5292  -40.4423   20.1061 H       1  LIG   0.0733   0.1000 
@<TRIPOS>BOND
1     2     1     ar
2     3     2     1
3     4     2     ar
4     5     4     1
5     6     4     ar
6     7     6     ar
7     8     7     1
8     9     8     1
9     10    8     1
10    11    10    1
11    12    11    ar
12    13    12    1
13    14    12    ar
14    15    14    1
15    16    14    ar
16    17    16    1
17    18    16    ar
18    19    11    ar
19    19    18    ar
20    20    19    1
21    21    1     ar
22    21    7     ar
23    21    20    1
24    22    6     1
25    23    22    1
26    24    22    1
27    25    22    1
28    26    10    2
29    27    20    1
30    28    27    1
31    29    27    1
32    30    29    1
33    31    29    1
34    32    27    1
35    32    29    1
36    33    32    1
37    34    32    1
@<TRIPOS>SUBSTRUCTURE
1   LIG    1    
 
########## Name        : 1VRT.lig
########## Description : AM1BCC_CHARGES =  -0.0002 ORIGINAL_CHARGES =  -0.0000

@<TRIPOS>MOLECULE
1VRT.lig
34    37    1     0     0    
SMALL
USER_CHARGES
@<TRIPOS>ATOM
1     N1       4.0540  -36.9310   22.2210 N.ar    1  LIG  -0.6650  -0.6200 
2     C1       4.9660  -36.2380   22.9390 C.ar    1  LIG   0.3947   0.1600 
3     H1       6.0082  -36.2811   22.6707 H       1  LIG   0.0281   0.1500 
4     C2       4.6240  -35.4500   24.0360 C.ar    1  LIG  -0.2334  -0.1500 
5     H2       5.3884  -34.9151   24.5740 H       1  LIG   0.1480   0.1500 
6     C3       3.3050  -35.3690   24.4150 C.ar    1  LIG  -0.0698  -0.1435 
7     C4       2.3460  -36.0770   23.6860 C.ar    1  LIG  -0.0398   0.1170 
8     N2       0.9890  -36.0280   24.1030 N.am    1  LIG  -0.4596  -0.5470 
9     H3       0.7643  -35.9928   25.0860 H       1  LIG   0.3311   0.3700 
10    C5      -0.1450  -36.0180   23.4080 C.2     1  LIG   0.7361   0.5438 
11    C6      -0.1190  -36.0770   21.8860 C.ar    1  LIG  -0.2550   0.0862 
12    C7      -1.1230  -35.3990   21.1890 C.ar    1  LIG  -0.0321  -0.1500 
13    H4      -1.7552  -34.6955   21.7041 H       1  LIG   0.1623   0.1500 
14    C8      -1.2960  -35.6300   19.8690 C.ar    1  LIG  -0.2723  -0.1500 
15    H5      -2.0662  -35.1073   19.3273 H       1  LIG   0.1522   0.1500 
16    C9      -0.4670  -36.5450   19.2400 C.ar    1  LIG   0.4373   0.1600 
17    H6      -0.5947  -36.7554   18.1915 H       1  LIG   0.0280   0.1500 
18    N3       0.5220  -37.2120   19.8740 N.ar    1  LIG  -0.6893  -0.6200 
19    C10      0.7040  -36.9790   21.1800 C.ar    1  LIG   0.6480   0.4100 
20    N4       1.7670  -37.6730   21.8260 N.pl3   1  LIG  -0.6924  -0.3690 
21    C11      2.7540  -36.8570   22.5840 C.ar    1  LIG   0.5805   0.4100 
22    C12      2.9040  -34.5090   25.6010 C.3     1  LIG  -0.0620   0.1435 
23    H7       2.2235  -33.7630   25.2820 H       1  LIG   0.0570   0.0000 
24    H8       2.4436  -35.1154   26.3371 H       1  LIG   0.0495   0.0000 
25    H9       3.7654  -34.0491   26.0108 H       1  LIG   0.0519   0.0000 
26    O1      -1.2400  -35.9060   23.9770 O.2     1  LIG  -0.6361  -0.5700 
27    C13      2.3440  -38.7570   21.0360 C.3     1  LIG   0.1354   0.0690 
28    H10      3.1238  -38.3754   20.4296 H       1  LIG   0.0981   0.1000 
29    C14      2.9380  -39.8900   21.8010 C.3     1  LIG  -0.1181  -0.2000 
30    H11      3.8890  -40.1268   21.3997 H       1  LIG   0.0732   0.1000 
31    H12      3.0430  -39.6129   22.8177 H       1  LIG   0.0789   0.1000 
32    C15      1.6390  -40.0610   21.0880 C.3     1  LIG  -0.1196  -0.2000 
33    H13      0.6832  -39.9283   21.5242 H       1  LIG   0.0807   0.1000 
34    H14      1.5292  -40.4423   20.1061 H       1  LIG   0.0733   0.1000 
@<TRIPOS>BOND
1     2     1     ar
2     3     2     1
3     4     2     ar
4     5     4     1
5     6     4     ar
6     7     6     ar
7     8     7     1
8     9     8     1
9     10    8     1
10    11    10    1
11    12    11    ar
12    13    12    1
13    14    12    ar
14    15    14    1
15    16    14    ar
16    17    16    1
17    18    16    ar
18    19    11    ar
19    19    18    ar
20    20    19    1
21    21    1     ar
22    21    7     ar
23    21    20    1
24    22    6     1
25    23    22    1
26    24    22    1
27    25    22    1
28    26    10    2
29    27    20    1
30    28    27    1
31    29    27    1
32    30    29    1
33    31    29    1
34    32    27    1
35    32    29    1
36    33    32    1
37    34    32    1
@<TRIPOS>SUBSTRUCTURE
1   LIG    1    
 
########## Name        : 1VRT.lig
########## Description : AM1BCC_CHARGES =  -0.0002 ORIGINAL_CHARGES =  -0.0000

@<TRIPOS>MOLECULE
1VRT.lig
34    37    1     0     0    
SMALL
USER_CHARGES
@<TRIPOS>ATOM
1     N1       4.0540  -36.9310   22.2210 N.ar    1  LIG  -0.6650  -0.6200 
2     C1       4.9660  -36.2380   22.9390 C.ar    1  LIG   0.3947   0.1600 
3     H1       6.0082  -36.2811   22.6707 H       1  LIG   0.0281   0.1500 
4     C2       4.6240  -35.4500   24.0360 C.ar    1  LIG  -0.2334  -0.1500 
5     H2       5.3884  -34.9151   24.5740 H       1  LIG   0.1480   0.1500 
6     C3       3.3050  -35.3690   24.4150 C.ar    1  LIG  -0.0698  -0.1435 
7     C4       2.3460  -36.0770   23.6860 C.ar    1  LIG  -0.0398   0.1170 
8     N2       0.9890  -36.0280   24.1030 N.am    1  LIG  -0.4596  -0.5470 
9     H3       0.7643  -35.9928   25.0860 H       1  LIG   0.3311   0.3700 
10    C5      -0.1450  -36.0180   23.4080 C.2     1  LIG   0.7361   0.5438 
11    C6      -0.1190  -36.0770   21.8860 C.ar    1  LIG  -0.2550   0.0862 
12    C7      -1.1230  -35.3990   21.1890 C.ar    1  LIG  -0.0321  -0.1500 
13    H4      -1.7552  -34.6955   21.7041 H       1  LIG   0.1623   0.1500 
14    C8      -1.2960  -35.6300   19.8690 C.ar    1  LIG  -0.2723  -0.1500 
15    H5      -2.0662  -35.1073   19.3273 H       1  LIG   0.1522   0.1500 
16    C9      -0.4670  -36.5450   19.2400 C.ar    1  LIG   0.4373   0.1600 
17    H6      -0.5947  -36.7554   18.1915 H       1  LIG   0.0280   0.1500 
18    N3       0.5220  -37.2120   19.8740 N.ar    1  LIG  -0.6893  -0.6200 
19    C10      0.7040  -36.9790   21.1800 C.ar    1  LIG   0.6480   0.4100 
20    N4       1.7670  -37.6730   21.8260 N.pl3   1  LIG  -0.6924  -0.3690 
21    C11      2.7540  -36.8570   22.5840 C.ar    1  LIG   0.5805   0.4100 
22    C12      2.9040  -34.5090   25.6010 C.3     1  LIG  -0.0620   0.1435 
23    H7       2.2235  -33.7630   25.2820 H       1  LIG   0.0570   0.0000 
24    H8       2.4436  -35.1154   26.3371 H       1  LIG   0.0495   0.0000 
25    H9       3.7654  -34.0491   26.0108 H       1  LIG   0.0519   0.0000 
26    O1      -1.2400  -35.9060   23.9770 O.2     1  LIG  -0.6361  -0.5700 
27    C13      2.3440  -38.7570   21.0360 C.3     1  LIG   0.1354   0.0690 
28    H10      3.1238  -38.3754   20.4296 H       1  LIG   0.0981   0.1000 
29    C14      2.9380  -39.8900   21.8010 C.3     1  LIG  -0.1181  -0.2000 
30    H11      3.8890  -40.1268   21.3997 H       1  LIG   0.0732   0.1000 
31    H12      3.0430  -39.6129   22.8177 H       1  LIG   0.0789   0.1000 
32    C15      1.6390  -40.0610   21.0880 C.3     1  LIG  -0.1196  -0.2000 
33    H13      0.6832  -39.9283   21.5242 H       1  LIG   0.0807   0.1000 
34    H14      1.5292  -40.4423   20.1061 H       1  LIG   0.0733   0.1000 
@<TRIPOS>BOND
1     2     1     ar
2     3     2     1
3     4     2     ar
4     5     4     1
5     6     4     ar
6     7     6     ar
7     8     7     1
8     9     8     1
9     10    8     1
10    11    10    1
11    12    11    ar
12    13    12    1
13    14    12    ar
14    15    14    1
15    16    14    ar
16    17    16    1
17    18    16    ar
18    19    11    ar
19    19    18    ar
20    20    19    1
21    21    1     ar
22    21    7     ar
23    21    20    1
24    22    6     1
25    23    22    1
26    24    22    1
27    25    22    1
28    26    10    2
29    27    20    1
30    28    27    1
31    29    27    1
32    30    29    1
33    31    29    1
34    32    27    1
35    32    29    1
36    33    32    1
37    34    32    1
@<TRIPOS>SUBSTRUCTURE
1   LIG    1    
 
########## Name        : 1VRT.lig
########## Description : AM1BCC_CHARGES =  -0.0002 ORIGINAL_CHARGES =  -0.0000

@<TRIPOS>MOLECULE
1VRT.lig
34    37    1     0     0    
SMALL
USER_CHARGES
@<TRIPOS>ATOM
1     N1       4.0540  -36.9310   22.2210 N.ar    1  LIG  -0.6650  -0.6200 
2     C1       4.9660  -36.2380   22.9390 C.ar    1  LIG   0.3947   0.1600 
3     H1       6.0082  -36.2811   22.6707 H       1  LIG   0.0281   0.1500 
4     C2       4.6240  -35.4500   24.0360 C.ar    1  LIG  -0.2334  -0.1500 
5     H2       5.3884  -34.9151   24.5740 H       1  LIG   0.1480   0.1500 
6     C3       3.3050  -35.3690   24.4150 C.ar    1  LIG  -0.0698  -0.1435 
7     C4       2.3460  -36.0770   23.6860 C.ar    1  LIG  -0.0398   0.1170 
8     N2       0.9890  -36.0280   24.1030 N.am    1  LIG  -0.4596  -0.5470 
9     H3       0.7643  -35.9928   25.0860 H       1  LIG   0.3311   0.3700 
10    C5      -0.1450  -36.0180   23.4080 C.2     1  LIG   0.7361   0.5438 
11    C6      -0.1190  -36.0770   21.8860 C.ar    1  LIG  -0.2550   0.0862 
12    C7      -1.1230  -35.3990   21.1890 C.ar    1  LIG  -0.0321  -0.1500 
13    H4      -1.7552  -34.6955   21.7041 H       1  LIG   0.1623   0.1500 
14    C8      -1.2960  -35.6300   19.8690 C.ar    1  LIG  -0.2723  -0.1500 
15    H5      -2.0662  -35.1073   19.3273 H       1  LIG   0.1522   0.1500 
16    C9      -0.4670  -36.5450   19.2400 C.ar    1  LIG   0.4373   0.1600 
17    H6      -0.5947  -36.7554   18.1915 H       1  LIG   0.0280   0.1500 
18    N3       0.5220  -37.2120   19.8740 N.ar    1  LIG  -0.6893  -0.6200 
19    C10      0.7040  -36.9790   21.1800 C.ar    1  LIG   0.6480   0.4100 
20    N4       1.7670  -37.6730   21.8260 N.pl3   1  LIG  -0.6924  -0.3690 
21    C11      2.7540  -36.8570   22.5840 C.ar    1  LIG   0.5805   0.4100 
22    C12      2.9040  -34.5090   25.6010 C.3     1  LIG  -0.0620   0.1435 
23    H7       2.2235  -33.7630   25.2820 H       1  LIG   0.0570   0.0000 
24    H8       2.4436  -35.1154   26.3371 H       1  LIG   0.0495   0.0000 
25    H9       3.7654  -34.0491   26.0108 H       1  LIG   0.0519   0.0000 
26    O1      -1.2400  -35.9060   23.9770 O.2     1  LIG  -0.6361  -0.5700 
27    C13      2.3440  -38.7570   21.0360 C.3     1  LIG   0.1354   0.0690 
28    H10      3.1238  -38.3754   20.4296 H       1  LIG   0.0981   0.1000 
29    C14      2.9380  -39.8900   21.8010 C.3     1  LIG  -0.1181  -0.2000 
30    H11      3.8890  -40.1268   21.3997 H       1  LIG   0.0732   0.1000 
31    H12      3.0430  -39.6129   22.8177 H       1  LIG   0.0789   0.1000 
32    C15      1.6390  -40.0610   21.0880 C.3     1  LIG  -0.1196  -0.2000 
33    H13      0.6832  -39.9283   21.5242 H       1  LIG   0.0807   0.1000 
34    H14      1.5292  -40.4423   20.1061 H       1  LIG   0.0733   0.1000 
@<TRIPOS>BOND
1     2     1     ar
2     3     2     1
3     4     2     ar
4     5     4     1
5     6     4     ar
6     7     6     ar
7     8     7     1
8     9     8     1
9     10    8     1
10    11    10    1
11    12    11    ar
12    13    12    1
13    14    12    ar
14    15    14    1
15    16    14    ar
16    17    16    1
17    18    16    ar
18    19    11    ar
19    19    18    ar
20    20    19    1
21    21    1     ar
22    21    7     ar
23    21    20    1
24    22    6     1
25    23    22    1
26    24    22    1
27    25    22    1
28    26    10    2
29    27    20    1
30    28    27    1
31    29    27    1
32    30    29    1
33    31    29    1
34    32    27    1
35    32    29    1
36    33    32    1
37    34    32    1
@<TRIPOS>SUBSTRUCTURE
1   LIG    1    
 
########## Name        : 1VRT.lig
########## Description : AM1BCC_CHARGES =  -0.0002 ORIGINAL_CHARGES =  -0.0000

@<TRIPOS>MOLECULE
1VRT.lig
34    37    1     0     0    
SMALL
USER_CHARGES
@<TRIPOS>ATOM
1     N1       4.0540  -36.9310   22.2210 N.ar    1  LIG  -0.6650  -0.6200 
2     C1       4.9660  -36.2380   22.9390 C.ar    1  LIG   0.3947   0.1600 
3     H1       6.0082  -36.2811   22.6707 H       1  LIG   0.0281   0.1500 
4     C2       4.6240  -35.4500   24.0360 C.ar    1  LIG  -0.2334  -0.1500 
5     H2       5.3884  -34.9151   24.5740 H       1  LIG   0.1480   0.1500 
6     C3       3.3050  -35.3690   24.4150 C.ar    1  LIG  -0.0698  -0.1435 
7     C4       2.3460  -36.0770   23.6860 C.ar    1  LIG  -0.0398   0.1170 
8     N2       0.9890  -36.0280   24.1030 N.am    1  LIG  -0.4596  -0.5470 
9     H3       0.7643  -35.9928   25.0860 H       1  LIG   0.3311   0.3700 
10    C5      -0.1450  -36.0180   23.4080 C.2     1  LIG   0.7361   0.5438 
11    C6      -0.1190  -36.0770   21.8860 C.ar    1  LIG  -0.2550   0.0862 
12    C7      -1.1230  -35.3990   21.1890 C.ar    1  LIG  -0.0321  -0.1500 
13    H4      -1.7552  -34.6955   21.7041 H       1  LIG   0.1623   0.1500 
14    C8      -1.2960  -35.6300   19.8690 C.ar    1  LIG  -0.2723  -0.1500 
15    H5      -2.0662  -35.1073   19.3273 H       1  LIG   0.1522   0.1500 
16    C9      -0.4670  -36.5450   19.2400 C.ar    1  LIG   0.4373   0.1600 
17    H6      -0.5947  -36.7554   18.1915 H       1  LIG   0.0280   0.1500 
18    N3       0.5220  -37.2120   19.8740 N.ar    1  LIG  -0.6893  -0.6200 
19    C10      0.7040  -36.9790   21.1800 C.ar    1  LIG   0.6480   0.4100 
20    N4       1.7670  -37.6730   21.8260 N.pl3   1  LIG  -0.6924  -0.3690 
21    C11      2.7540  -36.8570   22.5840 C.ar    1  LIG   0.5805   0.4100 
22    C12      2.9040  -34.5090   25.6010 C.3     1  LIG  -0.0620   0.1435 
23    H7       2.2235  -33.7630   25.2820 H       1  LIG   0.0570   0.0000 
24    H8       2.4436  -35.1154   26.3371 H       1  LIG   0.0495   0.0000 
25    H9       3.7654  -34.0491   26.0108 H       1  LIG   0.0519   0.0000 
26    O1      -1.2400  -35.9060   23.9770 O.2     1  LIG  -0.6361  -0.5700 
27    C13      2.3440  -38.7570   21.0360 C.3     1  LIG   0.1354   0.0690 
28    H10      3.1238  -38.3754   20.4296 H       1  LIG   0.0981   0.1000 
29    C14      2.9380  -39.8900   21.8010 C.3     1  LIG  -0.1181  -0.2000 
30    H11      3.8890  -40.1268   21.3997 H       1  LIG   0.0732   0.1000 
31    H12      3.0430  -39.6129   22.8177 H       1  LIG   0.0789   0.1000 
32    C15      1.6390  -40.0610   21.0880 C.3     1  LIG  -0.1196  -0.2000 
33    H13      0.6832  -39.9283   21.5242 H       1  LIG   0.0807   0.1000 
34    H14      1.5292  -40.4423   20.1061 H       1  LIG   0.0733   0.1000 
@<TRIPOS>BOND
1     2     1     ar
2     3     2     1
3     4     2     ar
4     5     4     1
5     6     4     ar
6     7     6     ar
7     8     7     1
8     9     8     1
9     10    8     1
10    11    10    1
11    12    11    ar
12    13    12    1
13    14    12    ar
14    15    14    1
15    16    14    ar
16    17    16    1
17    18    16    ar
18    19    11    ar
19    19    18    ar
20    20    19    1
21    21    1     ar
22    21    7     ar
23    21    20    1
24    22    6     1
25    23    22    1
26    24    22    1
27    25    22    1
28    26    10    2
29    27    20    1
30    28    27    1
31    29    27    1
32    30    29    1
33    31    29    1
34    32    27    1
35    32    29    1
36    33    32    1
37    34    32    1
@<TRIPOS>SUBSTRUCTURE
1   LIG    1    
 
########## Name        : 1VRT.lig
########## Description : AM1BCC_CHARGES =  -0.0002 ORIGINAL_CHARGES =  -0.0000

@<TRIPOS>MOLECULE
1VRT.lig
34    37    1     0     0    
SMALL
USER_CHARGES
@<TRIPOS>ATOM
1     N1       4.0540  -36.9310   22.2210 N.ar    1  LIG  -0.6650  -0.6200 
2     C1       4.9660  -36.2380   22.9390 C.ar    1  LIG   0.3947   0.1600 
3     H1       6.0082  -36.2811   22.6707 H       1  LIG   0.0281   0.1500 
4     C2       4.6240  -35.4500   24.0360 C.ar    1  LIG  -0.2334  -0.1500 
5     H2       5.3884  -34.9151   24.5740 H       1  LIG   0.1480   0.1500 
6     C3       3.3050  -35.3690   24.4150 C.ar    1  LIG  -0.0698  -0.1435 
7     C4       2.3460  -36.0770   23.6860 C.ar    1  LIG  -0.0398   0.1170 
8     N2       0.9890  -36.0280   24.1030 N.am    1  LIG  -0.4596  -0.5470 
9     H3       0.7643  -35.9928   25.0860 H       1  LIG   0.3311   0.3700 
10    C5      -0.1450  -36.0180   23.4080 C.2     1  LIG   0.7361   0.5438 
11    C6      -0.1190  -36.0770   21.8860 C.ar    1  LIG  -0.2550   0.0862 
12    C7      -1.1230  -35.3990   21.1890 C.ar    1  LIG  -0.0321  -0.1500 
13    H4      -1.7552  -34.6955   21.7041 H       1  LIG   0.1623   0.1500 
14    C8      -1.2960  -35.6300   19.8690 C.ar    1  LIG  -0.2723  -0.1500 
15    H5      -2.0662  -35.1073   19.3273 H       1  LIG   0.1522   0.1500 
16    C9      -0.4670  -36.5450   19.2400 C.ar    1  LIG   0.4373   0.1600 
17    H6      -0.5947  -36.7554   18.1915 H       1  LIG   0.0280   0.1500 
18    N3       0.5220  -37.2120   19.8740 N.ar    1  LIG  -0.6893  -0.6200 
19    C10      0.7040  -36.9790   21.1800 C.ar    1  LIG   0.6480   0.4100 
20    N4       1.7670  -37.6730   21.8260 N.pl3   1  LIG  -0.6924  -0.3690 
21    C11      2.7540  -36.8570   22.5840 C.ar    1  LIG   0.5805   0.4100 
22    C12      2.9040  -34.5090   25.6010 C.3     1  LIG  -0.0620   0.1435 
23    H7       2.2235  -33.7630   25.2820 H       1  LIG   0.0570   0.0000 
24    H8       2.4436  -35.1154   26.3371 H       1  LIG   0.0495   0.0000 
25    H9       3.7654  -34.0491   26.0108 H       1  LIG   0.0519   0.0000 
26    O1      -1.2400  -35.9060   23.9770 O.2     1  LIG  -0.6361  -0.5700 
27    C13      2.3440  -38.7570   21.0360 C.3     1  LIG   0.1354   0.0690 
28    H10      3.1238  -38.3754   20.4296 H       1  LIG   0.0981   0.1000 
29    C14      2.9380  -39.8900   21.8010 C.3     1  LIG  -0.1181  -0.2000 
30    H11      3.8890  -40.1268   21.3997 H       1  LIG   0.0732   0.1000 
31    H12      3.0430  -39.6129   22.8177 H       1  LIG   0.0789   0.1000 
32    C15      1.6390  -40.0610   21.0880 C.3     1  LIG  -0.1196  -0.2000 
33    H13      0.6832  -39.9283   21.5242 H       1  LIG   0.0807   0.1000 
34    H14      1.5292  -40.4423   20.1061 H       1  LIG   0.0733   0.1000 
@<TRIPOS>BOND
1     2     1     ar
2     3     2     1
3     4     2     ar
4     5     4     1
5     6     4     ar
6     7     6     ar
7     8     7     1
8     9     8     1
9     10    8     1
10    11    10    1
11    12    11    ar
12    13    12    1
13    14    12    ar
14    15    14    1
15    16    14    ar
16    17    16    1
17    18    16    ar
18    19    11    ar
19    19    18    ar
20    20    19    1
21    21    1     ar
22    21    7     ar
23    21    20    1
24    22    6     1
25    23    22    1
26    24    22    1
27    25    22    1
28    26    10    2
29    27    20    1
30    28    27    1
31    29    27    1
32    30    29    1
33    31    29    1
34    32    27    1
35    32    29    1
36    33    32    1
37    34    32    1
@<TRIPOS>SUBSTRUCTURE
1   LIG    1    
 
########## Name        : 1VRT.lig
########## Description : AM1BCC_CHARGES =  -0.0002 ORIGINAL_CHARGES =  -0.0000

@<TRIPOS>MOLECULE
1VRT.lig
34    37    1     0     0    
SMALL
USER_CHARGES
@<TRIPOS>ATOM
1     N1       4.0540  -36.9310   22.2210 N.ar    1  LIG  -0.6650  -0.6200 
2     C1       4.9660  -36.2380   22.9390 C.ar    1  LIG   0.3947   0.1600 
3     H1       6.0082  -36.2811   22.6707 H       1  LIG   0.0281   0.1500 
4     C2       4.6240  -35.4500   24.0360 C.ar    1  LIG  -0.2334  -0.1500 
5     H2       5.3884  -34.9151   24.5740 H       1  LIG   0.1480   0.1500 
6     C3       3.3050  -35.3690   24.4150 C.ar    1  LIG  -0.0698  -0.1435 
7     C4       2.3460  -36.0770   23.6860 C.ar    1  LIG  -0.0398   0.1170 
8     N2       0.9890  -36.0280   24.1030 N.am    1  LIG  -0.4596  -0.5470 
9     H3       0.7643  -35.9928   25.0860 H       1  LIG   0.3311   0.3700 
10    C5      -0.1450  -36.0180   23.4080 C.2     1  LIG   0.7361   0.5438 
11    C6      -0.1190  -36.0770   21.8860 C.ar    1  LIG  -0.2550   0.0862 
12    C7      -1.1230  -35.3990   21.1890 C.ar    1  LIG  -0.0321  -0.1500 
13    H4      -1.7552  -34.6955   21.7041 H       1  LIG   0.1623   0.1500 
14    C8      -1.2960  -35.6300   19.8690 C.ar    1  LIG  -0.2723  -0.1500 
15    H5      -2.0662  -35.1073   19.3273 H       1  LIG   0.1522   0.1500 
16    C9      -0.4670  -36.5450   19.2400 C.ar    1  LIG   0.4373   0.1600 
17    H6      -0.5947  -36.7554   18.1915 H       1  LIG   0.0280   0.1500 
18    N3       0.5220  -37.2120   19.8740 N.ar    1  LIG  -0.6893  -0.6200 
19    C10      0.7040  -36.9790   21.1800 C.ar    1  LIG   0.6480   0.4100 
20    N4       1.7670  -37.6730   21.8260 N.pl3   1  LIG  -0.6924  -0.3690 
21    C11      2.7540  -36.8570   22.5840 C.ar    1  LIG   0.5805   0.4100 
22    C12      2.9040  -34.5090   25.6010 C.3     1  LIG  -0.0620   0.1435 
23    H7       2.2235  -33.7630   25.2820 H       1  LIG   0.0570   0.0000 
24    H8       2.4436  -35.1154   26.3371 H       1  LIG   0.0495   0.0000 
25    H9       3.7654  -34.0491   26.0108 H       1  LIG   0.0519   0.0000 
26    O1      -1.2400  -35.9060   23.9770 O.2     1  LIG  -0.6361  -0.5700 
27    C13      2.3440  -38.7570   21.0360 C.3     1  LIG   0.1354   0.0690 
28    H10      3.1238  -38.3754   20.4296 H       1  LIG   0.0981   0.1000 
29    C14      2.9380  -39.8900   21.8010 C.3     1  LIG  -0.1181  -0.2000 
30    H11      3.8890  -40.1268   21.3997 H       1  LIG   0.0732   0.1000 
31    H12      3.0430  -39.6129   22.8177 H       1  LIG   0.0789   0.1000 
32    C15      1.6390  -40.0610   21.0880 C.3     1  LIG  -0.1196  -0.2000 
33    H13      0.6832  -39.9283   21.5242 H       1  LIG   0.0807   0.1000 
34    H14      1.5292  -40.4423   20.1061 H       1  LIG   0.0733   0.1000 
@<TRIPOS>BOND
1     2     1     ar
2     3     2     1
3     4     2     ar
4     5     4     1
5     6     4     ar
6     7     6     ar
7     8     7     1
8     9     8     1
9     10    8     1
10    11    10    1
11    12    11    ar
12    13    12    1
13    14    12    ar
14    15    14    1
15    16    14    ar
16    17    16    1
17    18    16    ar
18    19    11    ar
19    19    18    ar
20    20    19    1
21    21    1     ar
22    21    7     ar
23    21    20    1
24    22    6     1
25    23    22    1
26    24    22    1
27    25    22    1
28    26    10    2
29    27    20    1
30    28    27    1
31    29    27    1
32    30    29    1
33    31    29    1
34    32    27    1
35    32    29    1
36    33    32    1
37    34    32    1
@<TRIPOS>SUBSTRUCTURE
1   LIG    1    
 
########## Name        : 1VRT.lig
########## Description : AM1BCC_CHARGES =  -0.0002 ORIGINAL_CHARGES =  -0.0000

@<TRIPOS>MOLECULE
1VRT.lig
34    37    1     0     0    
SMALL
USER_CHARGES
@<TRIPOS>ATOM
1     N1       4.0540  -36.9310   22.2210 N.ar    1  LIG  -0.6650  -0.6200 
2     C1       4.9660  -36.2380   22.9390 C.ar    1  LIG   0.3947   0.1600 
3     H1       6.0082  -36.2811   22.6707 H       1  LIG   0.0281   0.1500 
4     C2       4.6240  -35.4500   24.0360 C.ar    1  LIG  -0.2334  -0.1500 
5     H2       5.3884  -34.9151   24.5740 H       1  LIG   0.1480   0.1500 
6     C3       3.3050  -35.3690   24.4150 C.ar    1  LIG  -0.0698  -0.1435 
7     C4       2.3460  -36.0770   23.6860 C.ar    1  LIG  -0.0398   0.1170 
8     N2       0.9890  -36.0280   24.1030 N.am    1  LIG  -0.4596  -0.5470 
9     H3       0.7643  -35.9928   25.0860 H       1  LIG   0.3311   0.3700 
10    C5      -0.1450  -36.0180   23.4080 C.2     1  LIG   0.7361   0.5438 
11    C6      -0.1190  -36.0770   21.8860 C.ar    1  LIG  -0.2550   0.0862 
12    C7      -1.1230  -35.3990   21.1890 C.ar    1  LIG  -0.0321  -0.1500 
13    H4      -1.7552  -34.6955   21.7041 H       1  LIG   0.1623   0.1500 
14    C8      -1.2960  -35.6300   19.8690 C.ar    1  LIG  -0.2723  -0.1500 
15    H5      -2.0662  -35.1073   19.3273 H       1  LIG   0.1522   0.1500 
16    C9      -0.4670  -36.5450   19.2400 C.ar    1  LIG   0.4373   0.1600 
17    H6      -0.5947  -36.7554   18.1915 H       1  LIG   0.0280   0.1500 
18    N3       0.5220  -37.2120   19.8740 N.ar    1  LIG  -0.6893  -0.6200 
19    C10      0.7040  -36.9790   21.1800 C.ar    1  LIG   0.6480   0.4100 
20    N4       1.7670  -37.6730   21.8260 N.pl3   1  LIG  -0.6924  -0.3690 
21    C11      2.7540  -36.8570   22.5840 C.ar    1  LIG   0.5805   0.4100 
22    C12      2.9040  -34.5090   25.6010 C.3     1  LIG  -0.0620   0.1435 
23    H7       2.2235  -33.7630   25.2820 H       1  LIG   0.0570   0.0000 
24    H8       2.4436  -35.1154   26.3371 H       1  LIG   0.0495   0.0000 
25    H9       3.7654  -34.0491   26.0108 H       1  LIG   0.0519   0.0000 
26    O1      -1.2400  -35.9060   23.9770 O.2     1  LIG  -0.6361  -0.5700 
27    C13      2.3440  -38.7570   21.0360 C.3     1  LIG   0.1354   0.0690 
28    H10      3.1238  -38.3754   20.4296 H       1  LIG   0.0981   0.1000 
29    C14      2.9380  -39.8900   21.8010 C.3     1  LIG  -0.1181  -0.2000 
30    H11      3.8890  -40.1268   21.3997 H       1  LIG   0.0732   0.1000 
31    H12      3.0430  -39.6129   22.8177 H       1  LIG   0.0789   0.1000 
32    C15      1.6390  -40.0610   21.0880 C.3     1  LIG  -0.1196  -0.2000 
33    H13      0.6832  -39.9283   21.5242 H       1  LIG   0.0807   0.1000 
34    H14      1.5292  -40.4423   20.1061 H       1  LIG   0.0733   0.1000 
@<TRIPOS>BOND
1     2     1     ar
2     3     2     1
3     4     2     ar
4     5     4     1
5     6     4     ar
6     7     6     ar
7     8     7     1
8     9     8     1
9     10    8     1
10    11    10    1
11    12    11    ar
12    13    12    1
13    14    12    ar
14    15    14    1
15    16    14    ar
16    17    16    1
17    18    16    ar
18    19    11    ar
19    19    18    ar
20    20    19    1
21    21    1     ar
22    21    7     ar
23    21    20    1
24    22    6     1
25    23    22    1
26    24    22    1
27    25    22    1
28    26    10    2
29    27    20    1
30    28    27    1
31    29    27    1
32    30    29    1
33    31    29    1
34    32    27    1
35    32    29    1
36    33    32    1
37    34    32    1
@<TRIPOS>SUBSTRUCTURE
1   LIG    1    
 
########## Name        : 1VRT.lig
########## Description : AM1BCC_CHARGES =  -0.0002 ORIGINAL_CHARGES =  -0.0000

@<TRIPOS>MOLECULE
1VRT.lig
34    37    1     0     0    
SMALL
USER_CHARGES
@<TRIPOS>ATOM
1     N1       4.0540  -36.9310   22.2210 N.ar    1  LIG  -0.6650  -0.6200 
2     C1       4.9660  -36.2380   22.9390 C.ar    1  LIG   0.3947   0.1600 
3     H1       6.0082  -36.2811   22.6707 H       1  LIG   0.0281   0.1500 
4     C2       4.6240  -35.4500   24.0360 C.ar    1  LIG  -0.2334  -0.1500 
5     H2       5.3884  -34.9151   24.5740 H       1  LIG   0.1480   0.1500 
6     C3       3.3050  -35.3690   24.4150 C.ar    1  LIG  -0.0698  -0.1435 
7     C4       2.3460  -36.0770   23.6860 C.ar    1  LIG  -0.0398   0.1170 
8     N2       0.9890  -36.0280   24.1030 N.am    1  LIG  -0.4596  -0.5470 
9     H3       0.7643  -35.9928   25.0860 H       1  LIG   0.3311   0.3700 
10    C5      -0.1450  -36.0180   23.4080 C.2     1  LIG   0.7361   0.5438 
11    C6      -0.1190  -36.0770   21.8860 C.ar    1  LIG  -0.2550   0.0862 
12    C7      -1.1230  -35.3990   21.1890 C.ar    1  LIG  -0.0321  -0.1500 
13    H4      -1.7552  -34.6955   21.7041 H       1  LIG   0.1623   0.1500 
14    C8      -1.2960  -35.6300   19.8690 C.ar    1  LIG  -0.2723  -0.1500 
15    H5      -2.0662  -35.1073   19.3273 H       1  LIG   0.1522   0.1500 
16    C9      -0.4670  -36.5450   19.2400 C.ar    1  LIG   0.4373   0.1600 
17    H6      -0.5947  -36.7554   18.1915 H       1  LIG   0.0280   0.1500 
18    N3       0.5220  -37.2120   19.8740 N.ar    1  LIG  -0.6893  -0.6200 
19    C10      0.7040  -36.9790   21.1800 C.ar    1  LIG   0.6480   0.4100 
20    N4       1.7670  -37.6730   21.8260 N.pl3   1  LIG  -0.6924  -0.3690 
21    C11      2.7540  -36.8570   22.5840 C.ar    1  LIG   0.5805   0.4100 
22    C12      2.9040  -34.5090   25.6010 C.3     1  LIG  -0.0620   0.1435 
23    H7       2.2235  -33.7630   25.2820 H       1  LIG   0.0570   0.0000 
24    H8       2.4436  -35.1154   26.3371 H       1  LIG   0.0495   0.0000 
25    H9       3.7654  -34.0491   26.0108 H       1  LIG   0.0519   0.0000 
26    O1      -1.2400  -35.9060   23.9770 O.2     1  LIG  -0.6361  -0.5700 
27    C13      2.3440  -38.7570   21.0360 C.3     1  LIG   0.1354   0.0690 
28    H10      3.1238  -38.3754   20.4296 H       1  LIG   0.0981   0.1000 
29    C14      2.9380  -39.8900   21.8010 C.3     1  LIG  -0.1181  -0.2000 
30    H11      3.8890  -40.1268   21.3997 H       1  LIG   0.0732   0.1000 
31    H12      3.0430  -39.6129   22.8177 H       1  LIG   0.0789   0.1000 
32    C15      1.6390  -40.0610   21.0880 C.3     1  LIG  -0.1196  -0.2000 
33    H13      0.6832  -39.9283   21.5242 H       1  LIG   0.0807   0.1000 
34    H14      1.5292  -40.4423   20.1061 H       1  LIG   0.0733   0.1000 
@<TRIPOS>BOND
1     2     1     ar
2     3     2     1
3     4     2     ar
4     5     4     1
5     6     4     ar
6     7     6     ar
7     8     7     1
8     9     8     1
9     10    8     1
10    11    10    1
11    12    11    ar
12    13    12    1
13    14    12    ar
14    15    14    1
15    16    14    ar
16    17    16    1
17    18    16    ar
18    19    11    ar
19    19    18    ar
20    20    19    1
21    21    1     ar
22    21    7     ar
23    21    20    1
24    22    6     1
25    23    22    1
26    24    22    1
27    25    22    1
28    26    10    2
29    27    20    1
30    28    27    1
31    29    27    1
32    30    29    1
33    31    29    1
34    32    27    1
35    32    29    1
36    33    32    1
37    34    32    1
@<TRIPOS>SUBSTRUCTURE
1   LIG    1    
 
########## Name        : 1VRT.lig
########## Description : AM1BCC_CHARGES =  -0.0002 ORIGINAL_CHARGES =  -0.0000

@<TRIPOS>MOLECULE
1VRT.lig
34    37    1     0     0    
SMALL
USER_CHARGES
@<TRIPOS>ATOM
1     N1       4.0540  -36.9310   22.2210 N.ar    1  LIG  -0.6650  -0.6200 
2     C1       4.9660  -36.2380   22.9390 C.ar    1  LIG   0.3947   0.1600 
3     H1       6.0082  -36.2811   22.6707 H       1  LIG   0.0281   0.1500 
4     C2       4.6240  -35.4500   24.0360 C.ar    1  LIG  -0.2334  -0.1500 
5     H2       5.3884  -34.9151   24.5740 H       1  LIG   0.1480   0.1500 
6     C3       3.3050  -35.3690   24.4150 C.ar    1  LIG  -0.0698  -0.1435 
7     C4       2.3460  -36.0770   23.6860 C.ar    1  LIG  -0.0398   0.1170 
8     N2       0.9890  -36.0280   24.1030 N.am    1  LIG  -0.4596  -0.5470 
9     H3       0.7643  -35.9928   25.0860 H       1  LIG   0.3311   0.3700 
10    C5      -0.1450  -36.0180   23.4080 C.2     1  LIG   0.7361   0.5438 
11    C6      -0.1190  -36.0770   21.8860 C.ar    1  LIG  -0.2550   0.0862 
12    C7      -1.1230  -35.3990   21.1890 C.ar    1  LIG  -0.0321  -0.1500 
13    H4      -1.7552  -34.6955   21.7041 H       1  LIG   0.1623   0.1500 
14    C8      -1.2960  -35.6300   19.8690 C.ar    1  LIG  -0.2723  -0.1500 
15    H5      -2.0662  -35.1073   19.3273 H       1  LIG   0.1522   0.1500 
16    C9      -0.4670  -36.5450   19.2400 C.ar    1  LIG   0.4373   0.1600 
17    H6      -0.5947  -36.7554   18.1915 H       1  LIG   0.0280   0.1500 
18    N3       0.5220  -37.2120   19.8740 N.ar    1  LIG  -0.6893  -0.6200 
19    C10      0.7040  -36.9790   21.1800 C.ar    1  LIG   0.6480   0.4100 
20    N4       1.7670  -37.6730   21.8260 N.pl3   1  LIG  -0.6924  -0.3690 
21    C11      2.7540  -36.8570   22.5840 C.ar    1  LIG   0.5805   0.4100 
22    C12      2.9040  -34.5090   25.6010 C.3     1  LIG  -0.0620   0.1435 
23    H7       2.2235  -33.7630   25.2820 H       1  LIG   0.0570   0.0000 
24    H8       2.4436  -35.1154   26.3371 H       1  LIG   0.0495   0.0000 
25    H9       3.7654  -34.0491   26.0108 H       1  LIG   0.0519   0.0000 
26    O1      -1.2400  -35.9060   23.9770 O.2     1  LIG  -0.6361  -0.5700 
27    C13      2.3440  -38.7570   21.0360 C.3     1  LIG   0.1354   0.0690 
28    H10      3.1238  -38.3754   20.4296 H       1  LIG   0.0981   0.1000 
29    C14      2.9380  -39.8900   21.8010 C.3     1  LIG  -0.1181  -0.2000 
30    H11      3.8890  -40.1268   21.3997 H       1  LIG   0.0732   0.1000 
31    H12      3.0430  -39.6129   22.8177 H       1  LIG   0.0789   0.1000 
32    C15      1.6390  -40.0610   21.0880 C.3     1  LIG  -0.1196  -0.2000 
33    H13      0.6832  -39.9283   21.5242 H       1  LIG   0.0807   0.1000 
34    H14      1.5292  -40.4423   20.1061 H       1  LIG   0.0733   0.1000 
@<TRIPOS>BOND
1     2     1     ar
2     3     2     1
3     4     2     ar
4     5     4     1
5     6     4     ar
6     7     6     ar
7     8     7     1
8     9     8     1
9     10    8     1
10    11    10    1
11    12    11    ar
12    13    12    1
13    14    12    ar
14    15    14    1
15    16    14    ar
16    17    16    1
17    18    16    ar
18    19    11    ar
19    19    18    ar
20    20    19    1
21    21    1     ar
22    21    7     ar
23    21    20    1
24    22    6     1
25    23    22    1
26    24    22    1
27    25    22    1
28    26    10    2
29    27    20    1
30    28    27    1
31    29    27    1
32    30    29    1
33    31    29    1
34    32    27    1
35    32    29    1
36    33    32    1
37    34    32    1
@<TRIPOS>SUBSTRUCTURE
1   LIG    1    
 
########## Name        : 1VRT.lig
########## Description : AM1BCC_CHARGES =  -0.0002 ORIGINAL_CHARGES =  -0.0000

@<TRIPOS>MOLECULE
1VRT.lig
34    37    1     0     0    
SMALL
USER_CHARGES
@<TRIPOS>ATOM
1     N1       4.0540  -36.9310   22.2210 N.ar    1  LIG  -0.6650  -0.6200 
2     C1       4.9660  -36.2380   22.9390 C.ar    1  LIG   0.3947   0.1600 
3     H1       6.0082  -36.2811   22.6707 H       1  LIG   0.0281   0.1500 
4     C2       4.6240  -35.4500   24.0360 C.ar    1  LIG  -0.2334  -0.1500 
5     H2       5.3884  -34.9151   24.5740 H       1  LIG   0.1480   0.1500 
6     C3       3.3050  -35.3690   24.4150 C.ar    1  LIG  -0.0698  -0.1435 
7     C4       2.3460  -36.0770   23.6860 C.ar    1  LIG  -0.0398   0.1170 
8     N2       0.9890  -36.0280   24.1030 N.am    1  LIG  -0.4596  -0.5470 
9     H3       0.7643  -35.9928   25.0860 H       1  LIG   0.3311   0.3700 
10    C5      -0.1450  -36.0180   23.4080 C.2     1  LIG   0.7361   0.5438 
11    C6      -0.1190  -36.0770   21.8860 C.ar    1  LIG  -0.2550   0.0862 
12    C7      -1.1230  -35.3990   21.1890 C.ar    1  LIG  -0.0321  -0.1500 
13    H4      -1.7552  -34.6955   21.7041 H       1  LIG   0.1623   0.1500 
14    C8      -1.2960  -35.6300   19.8690 C.ar    1  LIG  -0.2723  -0.1500 
15    H5      -2.0662  -35.1073   19.3273 H       1  LIG   0.1522   0.1500 
16    C9      -0.4670  -36.5450   19.2400 C.ar    1  LIG   0.4373   0.1600 
17    H6      -0.5947  -36.7554   18.1915 H       1  LIG   0.0280   0.1500 
18    N3       0.5220  -37.2120   19.8740 N.ar    1  LIG  -0.6893  -0.6200 
19    C10      0.7040  -36.9790   21.1800 C.ar    1  LIG   0.6480   0.4100 
20    N4       1.7670  -37.6730   21.8260 N.pl3   1  LIG  -0.6924  -0.3690 
21    C11      2.7540  -36.8570   22.5840 C.ar    1  LIG   0.5805   0.4100 
22    C12      2.9040  -34.5090   25.6010 C.3     1  LIG  -0.0620   0.1435 
23    H7       2.2235  -33.7630   25.2820 H       1  LIG   0.0570   0.0000 
24    H8       2.4436  -35.1154   26.3371 H       1  LIG   0.0495   0.0000 
25    H9       3.7654  -34.0491   26.0108 H       1  LIG   0.0519   0.0000 
26    O1      -1.2400  -35.9060   23.9770 O.2     1  LIG  -0.6361  -0.5700 
27    C13      2.3440  -38.7570   21.0360 C.3     1  LIG   0.1354   0.0690 
28    H10      3.1238  -38.3754   20.4296 H       1  LIG   0.0981   0.1000 
29    C14      2.9380  -39.8900   21.8010 C.3     1  LIG  -0.1181  -0.2000 
30    H11      3.8890  -40.1268   21.3997 H       1  LIG   0.0732   0.1000 
31    H12      3.0430  -39.6129   22.8177 H       1  LIG   0.0789   0.1000 
32    C15      1.6390  -40.0610   21.0880 C.3     1  LIG  -0.1196  -0.2000 
33    H13      0.6832  -39.9283   21.5242 H       1  LIG   0.0807   0.1000 
34    H14      1.5292  -40.4423   20.1061 H       1  LIG   0.0733   0.1000 
@<TRIPOS>BOND
1     2     1     ar
2     3     2     1
3     4     2     ar
4     5     4     1
5     6     4     ar
6     7     6     ar
7     8     7     1
8     9     8     1
9     10    8     1
10    11    10    1
11    12    11    ar
12    13    12    1
13    14    12    ar
14    15    14    1
15    16    14    ar
16    17    16    1
17    18    16    ar
18    19    11    ar
19    19    18    ar
20    20    19    1
21    21    1     ar
22    21    7     ar
23    21    20    1
24    22    6     1
25    23    22    1
26    24    22    1
27    25    22    1
28    26    10    2
29    27    20    1
30    28    27    1
31    29    27    1
32    30    29    1
33    31    29    1
34    32    27    1
35    32    29    1
36    33    32    1
37    34    32    1
@<TRIPOS>SUBSTRUCTURE
1   LIG    1    
 
########## Name        : 1VRT.lig
########## Description : AM1BCC_CHARGES =  -0.0002 ORIGINAL_CHARGES =  -0.0000

@<TRIPOS>MOLECULE
1VRT.lig
34    37    1     0     0    
SMALL
USER_CHARGES
@<TRIPOS>ATOM
1     N1       4.0540  -36.9310   22.2210 N.ar    1  LIG  -0.6650  -0.6200 
2     C1       4.9660  -36.2380   22.9390 C.ar    1  LIG   0.3947   0.1600 
3     H1       6.0082  -36.2811   22.6707 H       1  LIG   0.0281   0.1500 
4     C2       4.6240  -35.4500   24.0360 C.ar    1  LIG  -0.2334  -0.1500 
5     H2       5.3884  -34.9151   24.5740 H       1  LIG   0.1480   0.1500 
6     C3       3.3050  -35.3690   24.4150 C.ar    1  LIG  -0.0698  -0.1435 
7     C4       2.3460  -36.0770   23.6860 C.ar    1  LIG  -0.0398   0.1170 
8     N2       0.9890  -36.0280   24.1030 N.am    1  LIG  -0.4596  -0.5470 
9     H3       0.7643  -35.9928   25.0860 H       1  LIG   0.3311   0.3700 
10    C5      -0.1450  -36.0180   23.4080 C.2     1  LIG   0.7361   0.5438 
11    C6      -0.1190  -36.0770   21.8860 C.ar    1  LIG  -0.2550   0.0862 
12    C7      -1.1230  -35.3990   21.1890 C.ar    1  LIG  -0.0321  -0.1500 
13    H4      -1.7552  -34.6955   21.7041 H       1  LIG   0.1623   0.1500 
14    C8      -1.2960  -35.6300   19.8690 C.ar    1  LIG  -0.2723  -0.1500 
15    H5      -2.0662  -35.1073   19.3273 H       1  LIG   0.1522   0.1500 
16    C9      -0.4670  -36.5450   19.2400 C.ar    1  LIG   0.4373   0.1600 
17    H6      -0.5947  -36.7554   18.1915 H       1  LIG   0.0280   0.1500 
18    N3       0.5220  -37.2120   19.8740 N.ar    1  LIG  -0.6893  -0.6200 
19    C10      0.7040  -36.9790   21.1800 C.ar    1  LIG   0.6480   0.4100 
20    N4       1.7670  -37.6730   21.8260 N.pl3   1  LIG  -0.6924  -0.3690 
21    C11      2.7540  -36.8570   22.5840 C.ar    1  LIG   0.5805   0.4100 
22    C12      2.9040  -34.5090   25.6010 C.3     1  LIG  -0.0620   0.1435 
23    H7       2.2235  -33.7630   25.2820 H       1  LIG   0.0570   0.0000 
24    H8       2.4436  -35.1154   26.3371 H       1  LIG   0.0495   0.0000 
25    H9       3.7654  -34.0491   26.0108 H       1  LIG   0.0519   0.0000 
26    O1      -1.2400  -35.9060   23.9770 O.2     1  LIG  -0.6361  -0.5700 
27    C13      2.3440  -38.7570   21.0360 C.3     1  LIG   0.1354   0.0690 
28    H10      3.1238  -38.3754   20.4296 H       1  LIG   0.0981   0.1000 
29    C14      2.9380  -39.8900   21.8010 C.3     1  LIG  -0.1181  -0.2000 
30    H11      3.8890  -40.1268   21.3997 H       1  LIG   0.0732   0.1000 
31    H12      3.0430  -39.6129   22.8177 H       1  LIG   0.0789   0.1000 
32    C15      1.6390  -40.0610   21.0880 C.3     1  LIG  -0.1196  -0.2000 
33    H13      0.6832  -39.9283   21.5242 H       1  LIG   0.0807   0.1000 
34    H14      1.5292  -40.4423   20.1061 H       1  LIG   0.0733   0.1000 
@<TRIPOS>BOND
1     2     1     ar
2     3     2     1
3     4     2     ar
4     5     4     1
5     6     4     ar
6     7     6     ar
7     8     7     1
8     9     8     1
9     10    8     1
10    11    10    1
11    12    11    ar
12    13    12    1
13    14    12    ar
14    15    14    1
15    16    14    ar
16    17    16    1
17    18    16    ar
18    19    11    ar
19    19    18    ar
20    20    19    1
21    21    1     ar
22    21    7     ar
23    21    20    1
24    22    6     1
25    23    22    1
26    24    22    1
27    25    22    1
28    26    10    2
29    27    20    1
30    28    27    1
31    29    27    1
32    30    29    1
33    31    29    1
34    32    27    1
35    32    29    1
36    33    32    1
37    34    32    1
@<TRIPOS>SUBSTRUCTURE
1   LIG    1    
 
########## Name        : 1VRT.lig
########## Description : AM1BCC_CHARGES =  -0.0002 ORIGINAL_CHARGES =  -0.0000

@<TRIPOS>MOLECULE
1VRT.lig
34    37    1     0     0    
SMALL
USER_CHARGES
@<TRIPOS>ATOM
1     N1       4.0540  -36.9310   22.2210 N.ar    1  LIG  -0.6650  -0.6200 
2     C1       4.9660  -36.2380   22.9390 C.ar    1  LIG   0.3947   0.1600 
3     H1       6.0082  -36.2811   22.6707 H       1  LIG   0.0281   0.1500 
4     C2       4.6240  -35.4500   24.0360 C.ar    1  LIG  -0.2334  -0.1500 
5     H2       5.3884  -34.9151   24.5740 H       1  LIG   0.1480   0.1500 
6     C3       3.3050  -35.3690   24.4150 C.ar    1  LIG  -0.0698  -0.1435 
7     C4       2.3460  -36.0770   23.6860 C.ar    1  LIG  -0.0398   0.1170 
8     N2       0.9890  -36.0280   24.1030 N.am    1  LIG  -0.4596  -0.5470 
9     H3       0.7643  -35.9928   25.0860 H       1  LIG   0.3311   0.3700 
10    C5      -0.1450  -36.0180   23.4080 C.2     1  LIG   0.7361   0.5438 
11    C6      -0.1190  -36.0770   21.8860 C.ar    1  LIG  -0.2550   0.0862 
12    C7      -1.1230  -35.3990   21.1890 C.ar    1  LIG  -0.0321  -0.1500 
13    H4      -1.7552  -34.6955   21.7041 H       1  LIG   0.1623   0.1500 
14    C8      -1.2960  -35.6300   19.8690 C.ar    1  LIG  -0.2723  -0.1500 
15    H5      -2.0662  -35.1073   19.3273 H       1  LIG   0.1522   0.1500 
16    C9      -0.4670  -36.5450   19.2400 C.ar    1  LIG   0.4373   0.1600 
17    H6      -0.5947  -36.7554   18.1915 H       1  LIG   0.0280   0.1500 
18    N3       0.5220  -37.2120   19.8740 N.ar    1  LIG  -0.6893  -0.6200 
19    C10      0.7040  -36.9790   21.1800 C.ar    1  LIG   0.6480   0.4100 
20    N4       1.7670  -37.6730   21.8260 N.pl3   1  LIG  -0.6924  -0.3690 
21    C11      2.7540  -36.8570   22.5840 C.ar    1  LIG   0.5805   0.4100 
22    C12      2.9040  -34.5090   25.6010 C.3     1  LIG  -0.0620   0.1435 
23    H7       2.2235  -33.7630   25.2820 H       1  LIG   0.0570   0.0000 
24    H8       2.4436  -35.1154   26.3371 H       1  LIG   0.0495   0.0000 
25    H9       3.7654  -34.0491   26.0108 H       1  LIG   0.0519   0.0000 
26    O1      -1.2400  -35.9060   23.9770 O.2     1  LIG  -0.6361  -0.5700 
27    C13      2.3440  -38.7570   21.0360 C.3     1  LIG   0.1354   0.0690 
28    H10      3.1238  -38.3754   20.4296 H       1  LIG   0.0981   0.1000 
29    C14      2.9380  -39.8900   21.8010 C.3     1  LIG  -0.1181  -0.2000 
30    H11      3.8890  -40.1268   21.3997 H       1  LIG   0.0732   0.1000 
31    H12      3.0430  -39.6129   22.8177 H       1  LIG   0.0789   0.1000 
32    C15      1.6390  -40.0610   21.0880 C.3     1  LIG  -0.1196  -0.2000 
33    H13      0.6832  -39.9283   21.5242 H       1  LIG   0.0807   0.1000 
34    H14      1.5292  -40.4423   20.1061 H       1  LIG   0.0733   0.1000 
@<TRIPOS>BOND
1     2     1     ar
2     3     2     1
3     4     2     ar
4     5     4     1
5     6     4     ar
6     7     6     ar
7     8     7     1
8     9     8     1
9     10    8     1
10    11    10    1
11    12    11    ar
12    13    12    1
13    14    12    ar
14    15    14    1
15    16    14    ar
16    17    16    1
17    18    16    ar
18    19    11    ar
19    19    18    ar
20    20    19    1
21    21    1     ar
22    21    7     ar
23    21    20    1
24    22    6     1
25    23    22    1
26    24    22    1
27    25    22    1
28    26    10    2
29    27    20    1
30    28    27    1
31    29    27    1
32    30    29    1
33    31    29    1
34    32    27    1
35    32    29    1
36    33    32    1
37    34    32    1
@<TRIPOS>SUBSTRUCTURE
1   LIG    1    
 
########## Name        : 1VRT.lig
########## Description : AM1BCC_CHARGES =  -0.0002 ORIGINAL_CHARGES =  -0.0000

@<TRIPOS>MOLECULE
1VRT.lig
34    37    1     0     0    
SMALL
USER_CHARGES
@<TRIPOS>ATOM
1     N1       4.0540  -36.9310   22.2210 N.ar    1  LIG  -0.6650  -0.6200 
2     C1       4.9660  -36.2380   22.9390 C.ar    1  LIG   0.3947   0.1600 
3     H1       6.0082  -36.2811   22.6707 H       1  LIG   0.0281   0.1500 
4     C2       4.6240  -35.4500   24.0360 C.ar    1  LIG  -0.2334  -0.1500 
5     H2       5.3884  -34.9151   24.5740 H       1  LIG   0.1480   0.1500 
6     C3       3.3050  -35.3690   24.4150 C.ar    1  LIG  -0.0698  -0.1435 
7     C4       2.3460  -36.0770   23.6860 C.ar    1  LIG  -0.0398   0.1170 
8     N2       0.9890  -36.0280   24.1030 N.am    1  LIG  -0.4596  -0.5470 
9     H3       0.7643  -35.9928   25.0860 H       1  LIG   0.3311   0.3700 
10    C5      -0.1450  -36.0180   23.4080 C.2     1  LIG   0.7361   0.5438 
11    C6      -0.1190  -36.0770   21.8860 C.ar    1  LIG  -0.2550   0.0862 
12    C7      -1.1230  -35.3990   21.1890 C.ar    1  LIG  -0.0321  -0.1500 
13    H4      -1.7552  -34.6955   21.7041 H       1  LIG   0.1623   0.1500 
14    C8      -1.2960  -35.6300   19.8690 C.ar    1  LIG  -0.2723  -0.1500 
15    H5      -2.0662  -35.1073   19.3273 H       1  LIG   0.1522   0.1500 
16    C9      -0.4670  -36.5450   19.2400 C.ar    1  LIG   0.4373   0.1600 
17    H6      -0.5947  -36.7554   18.1915 H       1  LIG   0.0280   0.1500 
18    N3       0.5220  -37.2120   19.8740 N.ar    1  LIG  -0.6893  -0.6200 
19    C10      0.7040  -36.9790   21.1800 C.ar    1  LIG   0.6480   0.4100 
20    N4       1.7670  -37.6730   21.8260 N.pl3   1  LIG  -0.6924  -0.3690 
21    C11      2.7540  -36.8570   22.5840 C.ar    1  LIG   0.5805   0.4100 
22    C12      2.9040  -34.5090   25.6010 C.3     1  LIG  -0.0620   0.1435 
23    H7       2.2235  -33.7630   25.2820 H       1  LIG   0.0570   0.0000 
24    H8       2.4436  -35.1154   26.3371 H       1  LIG   0.0495   0.0000 
25    H9       3.7654  -34.0491   26.0108 H       1  LIG   0.0519   0.0000 
26    O1      -1.2400  -35.9060   23.9770 O.2     1  LIG  -0.6361  -0.5700 
27    C13      2.3440  -38.7570   21.0360 C.3     1  LIG   0.1354   0.0690 
28    H10      3.1238  -38.3754   20.4296 H       1  LIG   0.0981   0.1000 
29    C14      2.9380  -39.8900   21.8010 C.3     1  LIG  -0.1181  -0.2000 
30    H11      3.8890  -40.1268   21.3997 H       1  LIG   0.0732   0.1000 
31    H12      3.0430  -39.6129   22.8177 H       1  LIG   0.0789   0.1000 
32    C15      1.6390  -40.0610   21.0880 C.3     1  LIG  -0.1196  -0.2000 
33    H13      0.6832  -39.9283   21.5242 H       1  LIG   0.0807   0.1000 
34    H14      1.5292  -40.4423   20.1061 H       1  LIG   0.0733   0.1000 
@<TRIPOS>BOND
1     2     1     ar
2     3     2     1
3     4     2     ar
4     5     4     1
5     6     4     ar
6     7     6     ar
7     8     7     1
8     9     8     1
9     10    8     1
10    11    10    1
11    12    11    ar
12    13    12    1
13    14    12    ar
14    15    14    1
15    16    14    ar
16    17    16    1
17    18    16    ar
18    19    11    ar
19    19    18    ar
20    20    19    1
21    21    1     ar
22    21    7     ar
23    21    20    1
24    22    6     1
25    23    22    1
26    24    22    1
27    25    22    1
28    26    10    2
29    27    20    1
30    28    27    1
31    29    27    1
32    30    29    1
33    31    29    1
34    32    27    1
35    32    29    1
36    33    32    1
37    34    32    1
@<TRIPOS>SUBSTRUCTURE
1   LIG    1    
 
########## Name        : 1VRT.lig
########## Description : AM1BCC_CHARGES =  -0.0002 ORIGINAL_CHARGES =  -0.0000

@<TRIPOS>MOLECULE
1VRT.lig
34    37    1     0     0    
SMALL
USER_CHARGES
@<TRIPOS>ATOM
1     N1       4.0540  -36.9310   22.2210 N.ar    1  LIG  -0.6650  -0.6200 
2     C1       4.9660  -36.2380   22.9390 C.ar    1  LIG   0.3947   0.1600 
3     H1       6.0082  -36.2811   22.6707 H       1  LIG   0.0281   0.1500 
4     C2       4.6240  -35.4500   24.0360 C.ar    1  LIG  -0.2334  -0.1500 
5     H2       5.3884  -34.9151   24.5740 H       1  LIG   0.1480   0.1500 
6     C3       3.3050  -35.3690   24.4150 C.ar    1  LIG  -0.0698  -0.1435 
7     C4       2.3460  -36.0770   23.6860 C.ar    1  LIG  -0.0398   0.1170 
8     N2       0.9890  -36.0280   24.1030 N.am    1  LIG  -0.4596  -0.5470 
9     H3       0.7643  -35.9928   25.0860 H       1  LIG   0.3311   0.3700 
10    C5      -0.1450  -36.0180   23.4080 C.2     1  LIG   0.7361   0.5438 
11    C6      -0.1190  -36.0770   21.8860 C.ar    1  LIG  -0.2550   0.0862 
12    C7      -1.1230  -35.3990   21.1890 C.ar    1  LIG  -0.0321  -0.1500 
13    H4      -1.7552  -34.6955   21.7041 H       1  LIG   0.1623   0.1500 
14    C8      -1.2960  -35.6300   19.8690 C.ar    1  LIG  -0.2723  -0.1500 
15    H5      -2.0662  -35.1073   19.3273 H       1  LIG   0.1522   0.1500 
16    C9      -0.4670  -36.5450   19.2400 C.ar    1  LIG   0.4373   0.1600 
17    H6      -0.5947  -36.7554   18.1915 H       1  LIG   0.0280   0.1500 
18    N3       0.5220  -37.2120   19.8740 N.ar    1  LIG  -0.6893  -0.6200 
19    C10      0.7040  -36.9790   21.1800 C.ar    1  LIG   0.6480   0.4100 
20    N4       1.7670  -37.6730   21.8260 N.pl3   1  LIG  -0.6924  -0.3690 
21    C11      2.7540  -36.8570   22.5840 C.ar    1  LIG   0.5805   0.4100 
22    C12      2.9040  -34.5090   25.6010 C.3     1  LIG  -0.0620   0.1435 
23    H7       2.2235  -33.7630   25.2820 H       1  LIG   0.0570   0.0000 
24    H8       2.4436  -35.1154   26.3371 H       1  LIG   0.0495   0.0000 
25    H9       3.7654  -34.0491   26.0108 H       1  LIG   0.0519   0.0000 
26    O1      -1.2400  -35.9060   23.9770 O.2     1  LIG  -0.6361  -0.5700 
27    C13      2.3440  -38.7570   21.0360 C.3     1  LIG   0.1354   0.0690 
28    H10      3.1238  -38.3754   20.4296 H       1  LIG   0.0981   0.1000 
29    C14      2.9380  -39.8900   21.8010 C.3     1  LIG  -0.1181  -0.2000 
30    H11      3.8890  -40.1268   21.3997 H       1  LIG   0.0732   0.1000 
31    H12      3.0430  -39.6129   22.8177 H       1  LIG   0.0789   0.1000 
32    C15      1.6390  -40.0610   21.0880 C.3     1  LIG  -0.1196  -0.2000 
33    H13      0.6832  -39.9283   21.5242 H       1  LIG   0.0807   0.1000 
34    H14      1.5292  -40.4423   20.1061 H       1  LIG   0.0733   0.1000 
@<TRIPOS>BOND
1     2     1     ar
2     3     2     1
3     4     2     ar
4     5     4     1
5     6     4     ar
6     7     6     ar
7     8     7     1
8     9     8     1
9     10    8     1
10    11    10    1
11    12    11    ar
12    13    12    1
13    14    12    ar
14    15    14    1
15    16    14    ar
16    17    16    1
17    18    16    ar
18    19    11    ar
19    19    18    ar
20    20    19    1
21    21    1     ar
22    21    7     ar
23    21    20    1
24    22    6     1
25    23    22    1
26    24    22    1
27    25    22    1
28    26    10    2
29    27    20    1
30    28    27    1
31    29    27    1
32    30    29    1
33    31    29    1
34    32    27    1
35    32    29    1
36    33    32    1
37    34    32    1
@<TRIPOS>SUBSTRUCTURE
1   LIG    1    
 
########## Name        : 1VRT.lig
########## Description : AM1BCC_CHARGES =  -0.0002 ORIGINAL_CHARGES =  -0.0000

@<TRIPOS>MOLECULE
1VRT.lig
34    37    1     0     0    
SMALL
USER_CHARGES
@<TRIPOS>ATOM
1     N1       4.0540  -36.9310   22.2210 N.ar    1  LIG  -0.6650  -0.6200 
2     C1       4.9660  -36.2380   22.9390 C.ar    1  LIG   0.3947   0.1600 
3     H1       6.0082  -36.2811   22.6707 H       1  LIG   0.0281   0.1500 
4     C2       4.6240  -35.4500   24.0360 C.ar    1  LIG  -0.2334  -0.1500 
5     H2       5.3884  -34.9151   24.5740 H       1  LIG   0.1480   0.1500 
6     C3       3.3050  -35.3690   24.4150 C.ar    1  LIG  -0.0698  -0.1435 
7     C4       2.3460  -36.0770   23.6860 C.ar    1  LIG  -0.0398   0.1170 
8     N2       0.9890  -36.0280   24.1030 N.am    1  LIG  -0.4596  -0.5470 
9     H3       0.7643  -35.9928   25.0860 H       1  LIG   0.3311   0.3700 
10    C5      -0.1450  -36.0180   23.4080 C.2     1  LIG   0.7361   0.5438 
11    C6      -0.1190  -36.0770   21.8860 C.ar    1  LIG  -0.2550   0.0862 
12    C7      -1.1230  -35.3990   21.1890 C.ar    1  LIG  -0.0321  -0.1500 
13    H4      -1.7552  -34.6955   21.7041 H       1  LIG   0.1623   0.1500 
14    C8      -1.2960  -35.6300   19.8690 C.ar    1  LIG  -0.2723  -0.1500 
15    H5      -2.0662  -35.1073   19.3273 H       1  LIG   0.1522   0.1500 
16    C9      -0.4670  -36.5450   19.2400 C.ar    1  LIG   0.4373   0.1600 
17    H6      -0.5947  -36.7554   18.1915 H       1  LIG   0.0280   0.1500 
18    N3       0.5220  -37.2120   19.8740 N.ar    1  LIG  -0.6893  -0.6200 
19    C10      0.7040  -36.9790   21.1800 C.ar    1  LIG   0.6480   0.4100 
20    N4       1.7670  -37.6730   21.8260 N.pl3   1  LIG  -0.6924  -0.3690 
21    C11      2.7540  -36.8570   22.5840 C.ar    1  LIG   0.5805   0.4100 
22    C12      2.9040  -34.5090   25.6010 C.3     1  LIG  -0.0620   0.1435 
23    H7       2.2235  -33.7630   25.2820 H       1  LIG   0.0570   0.0000 
24    H8       2.4436  -35.1154   26.3371 H       1  LIG   0.0495   0.0000 
25    H9       3.7654  -34.0491   26.0108 H       1  LIG   0.0519   0.0000 
26    O1      -1.2400  -35.9060   23.9770 O.2     1  LIG  -0.6361  -0.5700 
27    C13      2.3440  -38.7570   21.0360 C.3     1  LIG   0.1354   0.0690 
28    H10      3.1238  -38.3754   20.4296 H       1  LIG   0.0981   0.1000 
29    C14      2.9380  -39.8900   21.8010 C.3     1  LIG  -0.1181  -0.2000 
30    H11      3.8890  -40.1268   21.3997 H       1  LIG   0.0732   0.1000 
31    H12      3.0430  -39.6129   22.8177 H       1  LIG   0.0789   0.1000 
32    C15      1.6390  -40.0610   21.0880 C.3     1  LIG  -0.1196  -0.2000 
33    H13      0.6832  -39.9283   21.5242 H       1  LIG   0.0807   0.1000 
34    H14      1.5292  -40.4423   20.1061 H       1  LIG   0.0733   0.1000 
@<TRIPOS>BOND
1     2     1     ar
2     3     2     1
3     4     2     ar
4     5     4     1
5     6     4     ar
6     7     6     ar
7     8     7     1
8     9     8     1
9     10    8     1
10    11    10    1
11    12    11    ar
12    13    12    1
13    14    12    ar
14    15    14    1
15    16    14    ar
16    17    16    1
17    18    16    ar
18    19    11    ar
19    19    18    ar
20    20    19    1
21    21    1     ar
22    21    7     ar
23    21    20    1
24    22    6     1
25    23    22    1
26    24    22    1
27    25    22    1
28    26    10    2
29    27    20    1
30    28    27    1
31    29    27    1
32    30    29    1
33    31    29    1
34    32    27    1
35    32    29    1
36    33    32    1
37    34    32    1
@<TRIPOS>SUBSTRUCTURE
1   LIG    1    
 
########## Name        : 1VRT.lig
########## Description : AM1BCC_CHARGES =  -0.0002 ORIGINAL_CHARGES =  -0.0000

@<TRIPOS>MOLECULE
1VRT.lig
34    37    1     0     0    
SMALL
USER_CHARGES
@<TRIPOS>ATOM
1     N1       4.0540  -36.9310   22.2210 N.ar    1  LIG  -0.6650  -0.6200 
2     C1       4.9660  -36.2380   22.9390 C.ar    1  LIG   0.3947   0.1600 
3     H1       6.0082  -36.2811   22.6707 H       1  LIG   0.0281   0.1500 
4     C2       4.6240  -35.4500   24.0360 C.ar    1  LIG  -0.2334  -0.1500 
5     H2       5.3884  -34.9151   24.5740 H       1  LIG   0.1480   0.1500 
6     C3       3.3050  -35.3690   24.4150 C.ar    1  LIG  -0.0698  -0.1435 
7     C4       2.3460  -36.0770   23.6860 C.ar    1  LIG  -0.0398   0.1170 
8     N2       0.9890  -36.0280   24.1030 N.am    1  LIG  -0.4596  -0.5470 
9     H3       0.7643  -35.9928   25.0860 H       1  LIG   0.3311   0.3700 
10    C5      -0.1450  -36.0180   23.4080 C.2     1  LIG   0.7361   0.5438 
11    C6      -0.1190  -36.0770   21.8860 C.ar    1  LIG  -0.2550   0.0862 
12    C7      -1.1230  -35.3990   21.1890 C.ar    1  LIG  -0.0321  -0.1500 
13    H4      -1.7552  -34.6955   21.7041 H       1  LIG   0.1623   0.1500 
14    C8      -1.2960  -35.6300   19.8690 C.ar    1  LIG  -0.2723  -0.1500 
15    H5      -2.0662  -35.1073   19.3273 H       1  LIG   0.1522   0.1500 
16    C9      -0.4670  -36.5450   19.2400 C.ar    1  LIG   0.4373   0.1600 
17    H6      -0.5947  -36.7554   18.1915 H       1  LIG   0.0280   0.1500 
18    N3       0.5220  -37.2120   19.8740 N.ar    1  LIG  -0.6893  -0.6200 
19    C10      0.7040  -36.9790   21.1800 C.ar    1  LIG   0.6480   0.4100 
20    N4       1.7670  -37.6730   21.8260 N.pl3   1  LIG  -0.6924  -0.3690 
21    C11      2.7540  -36.8570   22.5840 C.ar    1  LIG   0.5805   0.4100 
22    C12      2.9040  -34.5090   25.6010 C.3     1  LIG  -0.0620   0.1435 
23    H7       2.2235  -33.7630   25.2820 H       1  LIG   0.0570   0.0000 
24    H8       2.4436  -35.1154   26.3371 H       1  LIG   0.0495   0.0000 
25    H9       3.7654  -34.0491   26.0108 H       1  LIG   0.0519   0.0000 
26    O1      -1.2400  -35.9060   23.9770 O.2     1  LIG  -0.6361  -0.5700 
27    C13      2.3440  -38.7570   21.0360 C.3     1  LIG   0.1354   0.0690 
28    H10      3.1238  -38.3754   20.4296 H       1  LIG   0.0981   0.1000 
29    C14      2.9380  -39.8900   21.8010 C.3     1  LIG  -0.1181  -0.2000 
30    H11      3.8890  -40.1268   21.3997 H       1  LIG   0.0732   0.1000 
31    H12      3.0430  -39.6129   22.8177 H       1  LIG   0.0789   0.1000 
32    C15      1.6390  -40.0610   21.0880 C.3     1  LIG  -0.1196  -0.2000 
33    H13      0.6832  -39.9283   21.5242 H       1  LIG   0.0807   0.1000 
34    H14      1.5292  -40.4423   20.1061 H       1  LIG   0.0733   0.1000 
@<TRIPOS>BOND
1     2     1     ar
2     3     2     1
3     4     2     ar
4     5     4     1
5     6     4     ar
6     7     6     ar
7     8     7     1
8     9     8     1
9     10    8     1
10    11    10    1
11    12    11    ar
12    13    12    1
13    14    12    ar
14    15    14    1
15    16    14    ar
16    17    16    1
17    18    16    ar
18    19    11    ar
19    19    18    ar
20    20    19    1
21    21    1     ar
22    21    7     ar
23    21    20    1
24    22    6     1
25    23    22    1
26    24    22    1
27    25    22    1
28    26    10    2
29    27    20    1
30    28    27    1
31    29    27    1
32    30    29    1
33    31    29    1
34    32    27    1
35    32    29    1
36    33    32    1
37    34    32    1
@<TRIPOS>SUBSTRUCTURE
1   LIG    1    
 
########## Name        : 1VRT.lig
########## Description : AM1BCC_CHARGES =  -0.0002 ORIGINAL_CHARGES =  -0.0000

@<TRIPOS>MOLECULE
1VRT.lig
34    37    1     0     0    
SMALL
USER_CHARGES
@<TRIPOS>ATOM
1     N1       4.0540  -36.9310   22.2210 N.ar    1  LIG  -0.6650  -0.6200 
2     C1       4.9660  -36.2380   22.9390 C.ar    1  LIG   0.3947   0.1600 
3     H1       6.0082  -36.2811   22.6707 H       1  LIG   0.0281   0.1500 
4     C2       4.6240  -35.4500   24.0360 C.ar    1  LIG  -0.2334  -0.1500 
5     H2       5.3884  -34.9151   24.5740 H       1  LIG   0.1480   0.1500 
6     C3       3.3050  -35.3690   24.4150 C.ar    1  LIG  -0.0698  -0.1435 
7     C4       2.3460  -36.0770   23.6860 C.ar    1  LIG  -0.0398   0.1170 
8     N2       0.9890  -36.0280   24.1030 N.am    1  LIG  -0.4596  -0.5470 
9     H3       0.7643  -35.9928   25.0860 H       1  LIG   0.3311   0.3700 
10    C5      -0.1450  -36.0180   23.4080 C.2     1  LIG   0.7361   0.5438 
11    C6      -0.1190  -36.0770   21.8860 C.ar    1  LIG  -0.2550   0.0862 
12    C7      -1.1230  -35.3990   21.1890 C.ar    1  LIG  -0.0321  -0.1500 
13    H4      -1.7552  -34.6955   21.7041 H       1  LIG   0.1623   0.1500 
14    C8      -1.2960  -35.6300   19.8690 C.ar    1  LIG  -0.2723  -0.1500 
15    H5      -2.0662  -35.1073   19.3273 H       1  LIG   0.1522   0.1500 
16    C9      -0.4670  -36.5450   19.2400 C.ar    1  LIG   0.4373   0.1600 
17    H6      -0.5947  -36.7554   18.1915 H       1  LIG   0.0280   0.1500 
18    N3       0.5220  -37.2120   19.8740 N.ar    1  LIG  -0.6893  -0.6200 
19    C10      0.7040  -36.9790   21.1800 C.ar    1  LIG   0.6480   0.4100 
20    N4       1.7670  -37.6730   21.8260 N.pl3   1  LIG  -0.6924  -0.3690 
21    C11      2.7540  -36.8570   22.5840 C.ar    1  LIG   0.5805   0.4100 
22    C12      2.9040  -34.5090   25.6010 C.3     1  LIG  -0.0620   0.1435 
23    H7       2.2235  -33.7630   25.2820 H       1  LIG   0.0570   0.0000 
24    H8       2.4436  -35.1154   26.3371 H       1  LIG   0.0495   0.0000 
25    H9       3.7654  -34.0491   26.0108 H       1  LIG   0.0519   0.0000 
26    O1      -1.2400  -35.9060   23.9770 O.2     1  LIG  -0.6361  -0.5700 
27    C13      2.3440  -38.7570   21.0360 C.3     1  LIG   0.1354   0.0690 
28    H10      3.1238  -38.3754   20.4296 H       1  LIG   0.0981   0.1000 
29    C14      2.9380  -39.8900   21.8010 C.3     1  LIG  -0.1181  -0.2000 
30    H11      3.8890  -40.1268   21.3997 H       1  LIG   0.0732   0.1000 
31    H12      3.0430  -39.6129   22.8177 H       1  LIG   0.0789   0.1000 
32    C15      1.6390  -40.0610   21.0880 C.3     1  LIG  -0.1196  -0.2000 
33    H13      0.6832  -39.9283   21.5242 H       1  LIG   0.0807   0.1000 
34    H14      1.5292  -40.4423   20.1061 H       1  LIG   0.0733   0.1000 
@<TRIPOS>BOND
1     2     1     ar
2     3     2     1
3     4     2     ar
4     5     4     1
5     6     4     ar
6     7     6     ar
7     8     7     1
8     9     8     1
9     10    8     1
10    11    10    1
11    12    11    ar
12    13    12    1
13    14    12    ar
14    15    14    1
15    16    14    ar
16    17    16    1
17    18    16    ar
18    19    11    ar
19    19    18    ar
20    20    19    1
21    21    1     ar
22    21    7     ar
23    21    20    1
24    22    6     1
25    23    22    1
26    24    22    1
27    25    22    1
28    26    10    2
29    27    20    1
30    28    27    1
31    29    27    1
32    30    29    1
33    31    29    1
34    32    27    1
35    32    29    1
36    33    32    1
37    34    32    1
@<TRIPOS>SUBSTRUCTURE
1   LIG    1    
 
########## Name        : 1VRT.lig
########## Description : AM1BCC_CHARGES =  -0.0002 ORIGINAL_CHARGES =  -0.0000

@<TRIPOS>MOLECULE
1VRT.lig
34    37    1     0     0    
SMALL
USER_CHARGES
@<TRIPOS>ATOM
1     N1       4.0540  -36.9310   22.2210 N.ar    1  LIG  -0.6650  -0.6200 
2     C1       4.9660  -36.2380   22.9390 C.ar    1  LIG   0.3947   0.1600 
3     H1       6.0082  -36.2811   22.6707 H       1  LIG   0.0281   0.1500 
4     C2       4.6240  -35.4500   24.0360 C.ar    1  LIG  -0.2334  -0.1500 
5     H2       5.3884  -34.9151   24.5740 H       1  LIG   0.1480   0.1500 
6     C3       3.3050  -35.3690   24.4150 C.ar    1  LIG  -0.0698  -0.1435 
7     C4       2.3460  -36.0770   23.6860 C.ar    1  LIG  -0.0398   0.1170 
8     N2       0.9890  -36.0280   24.1030 N.am    1  LIG  -0.4596  -0.5470 
9     H3       0.7643  -35.9928   25.0860 H       1  LIG   0.3311   0.3700 
10    C5      -0.1450  -36.0180   23.4080 C.2     1  LIG   0.7361   0.5438 
11    C6      -0.1190  -36.0770   21.8860 C.ar    1  LIG  -0.2550   0.0862 
12    C7      -1.1230  -35.3990   21.1890 C.ar    1  LIG  -0.0321  -0.1500 
13    H4      -1.7552  -34.6955   21.7041 H       1  LIG   0.1623   0.1500 
14    C8      -1.2960  -35.6300   19.8690 C.ar    1  LIG  -0.2723  -0.1500 
15    H5      -2.0662  -35.1073   19.3273 H       1  LIG   0.1522   0.1500 
16    C9      -0.4670  -36.5450   19.2400 C.ar    1  LIG   0.4373   0.1600 
17    H6      -0.5947  -36.7554   18.1915 H       1  LIG   0.0280   0.1500 
18    N3       0.5220  -37.2120   19.8740 N.ar    1  LIG  -0.6893  -0.6200 
19    C10      0.7040  -36.9790   21.1800 C.ar    1  LIG   0.6480   0.4100 
20    N4       1.7670  -37.6730   21.8260 N.pl3   1  LIG  -0.6924  -0.3690 
21    C11      2.7540  -36.8570   22.5840 C.ar    1  LIG   0.5805   0.4100 
22    C12      2.9040  -34.5090   25.6010 C.3     1  LIG  -0.0620   0.1435 
23    H7       2.2235  -33.7630   25.2820 H       1  LIG   0.0570   0.0000 
24    H8       2.4436  -35.1154   26.3371 H       1  LIG   0.0495   0.0000 
25    H9       3.7654  -34.0491   26.0108 H       1  LIG   0.0519   0.0000 
26    O1      -1.2400  -35.9060   23.9770 O.2     1  LIG  -0.6361  -0.5700 
27    C13      2.3440  -38.7570   21.0360 C.3     1  LIG   0.1354   0.0690 
28    H10      3.1238  -38.3754   20.4296 H       1  LIG   0.0981   0.1000 
29    C14      2.9380  -39.8900   21.8010 C.3     1  LIG  -0.1181  -0.2000 
30    H11      3.8890  -40.1268   21.3997 H       1  LIG   0.0732   0.1000 
31    H12      3.0430  -39.6129   22.8177 H       1  LIG   0.0789   0.1000 
32    C15      1.6390  -40.0610   21.0880 C.3     1  LIG  -0.1196  -0.2000 
33    H13      0.6832  -39.9283   21.5242 H       1  LIG   0.0807   0.1000 
34    H14      1.5292  -40.4423   20.1061 H       1  LIG   0.0733   0.1000 
@<TRIPOS>BOND
1     2     1     ar
2     3     2     1
3     4     2     ar
4     5     4     1
5     6     4     ar
6     7     6     ar
7     8     7     1
8     9     8     1
9     10    8     1
10    11    10    1
11    12    11    ar
12    13    12    1
13    14    12    ar
14    15    14    1
15    16    14    ar
16    17    16    1
17    18    16    ar
18    19    11    ar
19    19    18    ar
20    20    19    1
21    21    1     ar
22    21    7     ar
23    21    20    1
24    22    6     1
25    23    22    1
26    24    22    1
27    25    22    1
28    26    10    2
29    27    20    1
30    28    27    1
31    29    27    1
32    30    29    1
33    31    29    1
34    32    27    1
35    32    29    1
36    33    32    1
37    34    32    1
@<TRIPOS>SUBSTRUCTURE
1   LIG    1    
 
########## Name        : 1VRT.lig
########## Description : AM1BCC_CHARGES =  -0.0002 ORIGINAL_CHARGES =  -0.0000

@<TRIPOS>MOLECULE
1VRT.lig
34    37    1     0     0    
SMALL
USER_CHARGES
@<TRIPOS>ATOM
1     N1       4.0540  -36.9310   22.2210 N.ar    1  LIG  -0.6650  -0.6200 
2     C1       4.9660  -36.2380   22.9390 C.ar    1  LIG   0.3947   0.1600 
3     H1       6.0082  -36.2811   22.6707 H       1  LIG   0.0281   0.1500 
4     C2       4.6240  -35.4500   24.0360 C.ar    1  LIG  -0.2334  -0.1500 
5     H2       5.3884  -34.9151   24.5740 H       1  LIG   0.1480   0.1500 
6     C3       3.3050  -35.3690   24.4150 C.ar    1  LIG  -0.0698  -0.1435 
7     C4       2.3460  -36.0770   23.6860 C.ar    1  LIG  -0.0398   0.1170 
8     N2       0.9890  -36.0280   24.1030 N.am    1  LIG  -0.4596  -0.5470 
9     H3       0.7643  -35.9928   25.0860 H       1  LIG   0.3311   0.3700 
10    C5      -0.1450  -36.0180   23.4080 C.2     1  LIG   0.7361   0.5438 
11    C6      -0.1190  -36.0770   21.8860 C.ar    1  LIG  -0.2550   0.0862 
12    C7      -1.1230  -35.3990   21.1890 C.ar    1  LIG  -0.0321  -0.1500 
13    H4      -1.7552  -34.6955   21.7041 H       1  LIG   0.1623   0.1500 
14    C8      -1.2960  -35.6300   19.8690 C.ar    1  LIG  -0.2723  -0.1500 
15    H5      -2.0662  -35.1073   19.3273 H       1  LIG   0.1522   0.1500 
16    C9      -0.4670  -36.5450   19.2400 C.ar    1  LIG   0.4373   0.1600 
17    H6      -0.5947  -36.7554   18.1915 H       1  LIG   0.0280   0.1500 
18    N3       0.5220  -37.2120   19.8740 N.ar    1  LIG  -0.6893  -0.6200 
19    C10      0.7040  -36.9790   21.1800 C.ar    1  LIG   0.6480   0.4100 
20    N4       1.7670  -37.6730   21.8260 N.pl3   1  LIG  -0.6924  -0.3690 
21    C11      2.7540  -36.8570   22.5840 C.ar    1  LIG   0.5805   0.4100 
22    C12      2.9040  -34.5090   25.6010 C.3     1  LIG  -0.0620   0.1435 
23    H7       2.2235  -33.7630   25.2820 H       1  LIG   0.0570   0.0000 
24    H8       2.4436  -35.1154   26.3371 H       1  LIG   0.0495   0.0000 
25    H9       3.7654  -34.0491   26.0108 H       1  LIG   0.0519   0.0000 
26    O1      -1.2400  -35.9060   23.9770 O.2     1  LIG  -0.6361  -0.5700 
27    C13      2.3440  -38.7570   21.0360 C.3     1  LIG   0.1354   0.0690 
28    H10      3.1238  -38.3754   20.4296 H       1  LIG   0.0981   0.1000 
29    C14      2.9380  -39.8900   21.8010 C.3     1  LIG  -0.1181  -0.2000 
30    H11      3.8890  -40.1268   21.3997 H       1  LIG   0.0732   0.1000 
31    H12      3.0430  -39.6129   22.8177 H       1  LIG   0.0789   0.1000 
32    C15      1.6390  -40.0610   21.0880 C.3     1  LIG  -0.1196  -0.2000 
33    H13      0.6832  -39.9283   21.5242 H       1  LIG   0.0807   0.1000 
34    H14      1.5292  -40.4423   20.1061 H       1  LIG   0.0733   0.1000 
@<TRIPOS>BOND
1     2     1     ar
2     3     2     1
3     4     2     ar
4     5     4     1
5     6     4     ar
6     7     6     ar
7     8     7     1
8     9     8     1
9     10    8     1
10    11    10    1
11    12    11    ar
12    13    12    1
13    14    12    ar
14    15    14    1
15    16    14    ar
16    17    16    1
17    18    16    ar
18    19    11    ar
19    19    18    ar
20    20    19    1
21    21    1     ar
22    21    7     ar
23    21    20    1
24    22    6     1
25    23    22    1
26    24    22    1
27    25    22    1
28    26    10    2
29    27    20    1
30    28    27    1
31    29    27    1
32    30    29    1
33    31    29    1
34    32    27    1
35    32    29    1
36    33    32    1
37    34    32    1
@<TRIPOS>SUBSTRUCTURE
1   LIG    1    
 
########## Name        : 1VRT.lig
########## Description : AM1BCC_CHARGES =  -0.0002 ORIGINAL_CHARGES =  -0.0000

@<TRIPOS>MOLECULE
1VRT.lig
34    37    1     0     0    
SMALL
USER_CHARGES
@<TRIPOS>ATOM
1     N1       4.0540  -36.9310   22.2210 N.ar    1  LIG  -0.6650  -0.6200 
2     C1       4.9660  -36.2380   22.9390 C.ar    1  LIG   0.3947   0.1600 
3     H1       6.0082  -36.2811   22.6707 H       1  LIG   0.0281   0.1500 
4     C2       4.6240  -35.4500   24.0360 C.ar    1  LIG  -0.2334  -0.1500 
5     H2       5.3884  -34.9151   24.5740 H       1  LIG   0.1480   0.1500 
6     C3       3.3050  -35.3690   24.4150 C.ar    1  LIG  -0.0698  -0.1435 
7     C4       2.3460  -36.0770   23.6860 C.ar    1  LIG  -0.0398   0.1170 
8     N2       0.9890  -36.0280   24.1030 N.am    1  LIG  -0.4596  -0.5470 
9     H3       0.7643  -35.9928   25.0860 H       1  LIG   0.3311   0.3700 
10    C5      -0.1450  -36.0180   23.4080 C.2     1  LIG   0.7361   0.5438 
11    C6      -0.1190  -36.0770   21.8860 C.ar    1  LIG  -0.2550   0.0862 
12    C7      -1.1230  -35.3990   21.1890 C.ar    1  LIG  -0.0321  -0.1500 
13    H4      -1.7552  -34.6955   21.7041 H       1  LIG   0.1623   0.1500 
14    C8      -1.2960  -35.6300   19.8690 C.ar    1  LIG  -0.2723  -0.1500 
15    H5      -2.0662  -35.1073   19.3273 H       1  LIG   0.1522   0.1500 
16    C9      -0.4670  -36.5450   19.2400 C.ar    1  LIG   0.4373   0.1600 
17    H6      -0.5947  -36.7554   18.1915 H       1  LIG   0.0280   0.1500 
18    N3       0.5220  -37.2120   19.8740 N.ar    1  LIG  -0.6893  -0.6200 
19    C10      0.7040  -36.9790   21.1800 C.ar    1  LIG   0.6480   0.4100 
20    N4       1.7670  -37.6730   21.8260 N.pl3   1  LIG  -0.6924  -0.3690 
21    C11      2.7540  -36.8570   22.5840 C.ar    1  LIG   0.5805   0.4100 
22    C12      2.9040  -34.5090   25.6010 C.3     1  LIG  -0.0620   0.1435 
23    H7       2.2235  -33.7630   25.2820 H       1  LIG   0.0570   0.0000 
24    H8       2.4436  -35.1154   26.3371 H       1  LIG   0.0495   0.0000 
25    H9       3.7654  -34.0491   26.0108 H       1  LIG   0.0519   0.0000 
26    O1      -1.2400  -35.9060   23.9770 O.2     1  LIG  -0.6361  -0.5700 
27    C13      2.3440  -38.7570   21.0360 C.3     1  LIG   0.1354   0.0690 
28    H10      3.1238  -38.3754   20.4296 H       1  LIG   0.0981   0.1000 
29    C14      2.9380  -39.8900   21.8010 C.3     1  LIG  -0.1181  -0.2000 
30    H11      3.8890  -40.1268   21.3997 H       1  LIG   0.0732   0.1000 
31    H12      3.0430  -39.6129   22.8177 H       1  LIG   0.0789   0.1000 
32    C15      1.6390  -40.0610   21.0880 C.3     1  LIG  -0.1196  -0.2000 
33    H13      0.6832  -39.9283   21.5242 H       1  LIG   0.0807   0.1000 
34    H14      1.5292  -40.4423   20.1061 H       1  LIG   0.0733   0.1000 
@<TRIPOS>BOND
1     2     1     ar
2     3     2     1
3     4     2     ar
4     5     4     1
5     6     4     ar
6     7     6     ar
7     8     7     1
8     9     8     1
9     10    8     1
10    11    10    1
11    12    11    ar
12    13    12    1
13    14    12    ar
14    15    14    1
15    16    14    ar
16    17    16    1
17    18    16    ar
18    19    11    ar
19    19    18    ar
20    20    19    1
21    21    1     ar
22    21    7     ar
23    21    20    1
24    22    6     1
25    23    22    1
26    24    22    1
27    25    22    1
28    26    10    2
29    27    20    1
30    28    27    1
31    29    27    1
32    30    29    1
33    31    29    1
34    32    27    1
35    32    29    1
36    33    32    1
37    34    32    1
@<TRIPOS>SUBSTRUCTURE
1   LIG    1    
 
########## Name        : 1VRT.lig
########## Description : AM1BCC_CHARGES =  -0.0002 ORIGINAL_CHARGES =  -0.0000

@<TRIPOS>MOLECULE
1VRT.lig
34    37    1     0     0    
SMALL
USER_CHARGES
@<TRIPOS>ATOM
1     N1       4.0540  -36.9310   22.2210 N.ar    1  LIG  -0.6650  -0.6200 
2     C1       4.9660  -36.2380   22.9390 C.ar    1  LIG   0.3947   0.1600 
3     H1       6.0082  -36.2811   22.6707 H       1  LIG   0.0281   0.1500 
4     C2       4.6240  -35.4500   24.0360 C.ar    1  LIG  -0.2334  -0.1500 
5     H2       5.3884  -34.9151   24.5740 H       1  LIG   0.1480   0.1500 
6     C3       3.3050  -35.3690   24.4150 C.ar    1  LIG  -0.0698  -0.1435 
7     C4       2.3460  -36.0770   23.6860 C.ar    1  LIG  -0.0398   0.1170 
8     N2       0.9890  -36.0280   24.1030 N.am    1  LIG  -0.4596  -0.5470 
9     H3       0.7643  -35.9928   25.0860 H       1  LIG   0.3311   0.3700 
10    C5      -0.1450  -36.0180   23.4080 C.2     1  LIG   0.7361   0.5438 
11    C6      -0.1190  -36.0770   21.8860 C.ar    1  LIG  -0.2550   0.0862 
12    C7      -1.1230  -35.3990   21.1890 C.ar    1  LIG  -0.0321  -0.1500 
13    H4      -1.7552  -34.6955   21.7041 H       1  LIG   0.1623   0.1500 
14    C8      -1.2960  -35.6300   19.8690 C.ar    1  LIG  -0.2723  -0.1500 
15    H5      -2.0662  -35.1073   19.3273 H       1  LIG   0.1522   0.1500 
16    C9      -0.4670  -36.5450   19.2400 C.ar    1  LIG   0.4373   0.1600 
17    H6      -0.5947  -36.7554   18.1915 H       1  LIG   0.0280   0.1500 
18    N3       0.5220  -37.2120   19.8740 N.ar    1  LIG  -0.6893  -0.6200 
19    C10      0.7040  -36.9790   21.1800 C.ar    1  LIG   0.6480   0.4100 
20    N4       1.7670  -37.6730   21.8260 N.pl3   1  LIG  -0.6924  -0.3690 
21    C11      2.7540  -36.8570   22.5840 C.ar    1  LIG   0.5805   0.4100 
22    C12      2.9040  -34.5090   25.6010 C.3     1  LIG  -0.0620   0.1435 
23    H7       2.2235  -33.7630   25.2820 H       1  LIG   0.0570   0.0000 
24    H8       2.4436  -35.1154   26.3371 H       1  LIG   0.0495   0.0000 
25    H9       3.7654  -34.0491   26.0108 H       1  LIG   0.0519   0.0000 
26    O1      -1.2400  -35.9060   23.9770 O.2     1  LIG  -0.6361  -0.5700 
27    C13      2.3440  -38.7570   21.0360 C.3     1  LIG   0.1354   0.0690 
28    H10      3.1238  -38.3754   20.4296 H       1  LIG   0.0981   0.1000 
29    C14      2.9380  -39.8900   21.8010 C.3     1  LIG  -0.1181  -0.2000 
30    H11      3.8890  -40.1268   21.3997 H       1  LIG   0.0732   0.1000 
31    H12      3.0430  -39.6129   22.8177 H       1  LIG   0.0789   0.1000 
32    C15      1.6390  -40.0610   21.0880 C.3     1  LIG  -0.1196  -0.2000 
33    H13      0.6832  -39.9283   21.5242 H       1  LIG   0.0807   0.1000 
34    H14      1.5292  -40.4423   20.1061 H       1  LIG   0.0733   0.1000 
@<TRIPOS>BOND
1     2     1     ar
2     3     2     1
3     4     2     ar
4     5     4     1
5     6     4     ar
6     7     6     ar
7     8     7     1
8     9     8     1
9     10    8     1
10    11    10    1
11    12    11    ar
12    13    12    1
13    14    12    ar
14    15    14    1
15    16    14    ar
16    17    16    1
17    18    16    ar
18    19    11    ar
19    19    18    ar
20    20    19    1
21    21    1     ar
22    21    7     ar
23    21    20    1
24    22    6     1
25    23    22    1
26    24    22    1
27    25    22    1
28    26    10    2
29    27    20    1
30    28    27    1
31    29    27    1
32    30    29    1
33    31    29    1
34    32    27    1
35    32    29    1
36    33    32    1
37    34    32    1
@<TRIPOS>SUBSTRUCTURE
1   LIG    1    
 
########## Name        : 1VRT.lig
########## Description : AM1BCC_CHARGES =  -0.0002 ORIGINAL_CHARGES =  -0.0000

@<TRIPOS>MOLECULE
1VRT.lig
34    37    1     0     0    
SMALL
USER_CHARGES
@<TRIPOS>ATOM
1     N1       4.0540  -36.9310   22.2210 N.ar    1  LIG  -0.6650  -0.6200 
2     C1       4.9660  -36.2380   22.9390 C.ar    1  LIG   0.3947   0.1600 
3     H1       6.0082  -36.2811   22.6707 H       1  LIG   0.0281   0.1500 
4     C2       4.6240  -35.4500   24.0360 C.ar    1  LIG  -0.2334  -0.1500 
5     H2       5.3884  -34.9151   24.5740 H       1  LIG   0.1480   0.1500 
6     C3       3.3050  -35.3690   24.4150 C.ar    1  LIG  -0.0698  -0.1435 
7     C4       2.3460  -36.0770   23.6860 C.ar    1  LIG  -0.0398   0.1170 
8     N2       0.9890  -36.0280   24.1030 N.am    1  LIG  -0.4596  -0.5470 
9     H3       0.7643  -35.9928   25.0860 H       1  LIG   0.3311   0.3700 
10    C5      -0.1450  -36.0180   23.4080 C.2     1  LIG   0.7361   0.5438 
11    C6      -0.1190  -36.0770   21.8860 C.ar    1  LIG  -0.2550   0.0862 
12    C7      -1.1230  -35.3990   21.1890 C.ar    1  LIG  -0.0321  -0.1500 
13    H4      -1.7552  -34.6955   21.7041 H       1  LIG   0.1623   0.1500 
14    C8      -1.2960  -35.6300   19.8690 C.ar    1  LIG  -0.2723  -0.1500 
15    H5      -2.0662  -35.1073   19.3273 H       1  LIG   0.1522   0.1500 
16    C9      -0.4670  -36.5450   19.2400 C.ar    1  LIG   0.4373   0.1600 
17    H6      -0.5947  -36.7554   18.1915 H       1  LIG   0.0280   0.1500 
18    N3       0.5220  -37.2120   19.8740 N.ar    1  LIG  -0.6893  -0.6200 
19    C10      0.7040  -36.9790   21.1800 C.ar    1  LIG   0.6480   0.4100 
20    N4       1.7670  -37.6730   21.8260 N.pl3   1  LIG  -0.6924  -0.3690 
21    C11      2.7540  -36.8570   22.5840 C.ar    1  LIG   0.5805   0.4100 
22    C12      2.9040  -34.5090   25.6010 C.3     1  LIG  -0.0620   0.1435 
23    H7       2.2235  -33.7630   25.2820 H       1  LIG   0.0570   0.0000 
24    H8       2.4436  -35.1154   26.3371 H       1  LIG   0.0495   0.0000 
25    H9       3.7654  -34.0491   26.0108 H       1  LIG   0.0519   0.0000 
26    O1      -1.2400  -35.9060   23.9770 O.2     1  LIG  -0.6361  -0.5700 
27    C13      2.3440  -38.7570   21.0360 C.3     1  LIG   0.1354   0.0690 
28    H10      3.1238  -38.3754   20.4296 H       1  LIG   0.0981   0.1000 
29    C14      2.9380  -39.8900   21.8010 C.3     1  LIG  -0.1181  -0.2000 
30    H11      3.8890  -40.1268   21.3997 H       1  LIG   0.0732   0.1000 
31    H12      3.0430  -39.6129   22.8177 H       1  LIG   0.0789   0.1000 
32    C15      1.6390  -40.0610   21.0880 C.3     1  LIG  -0.1196  -0.2000 
33    H13      0.6832  -39.9283   21.5242 H       1  LIG   0.0807   0.1000 
34    H14      1.5292  -40.4423   20.1061 H       1  LIG   0.0733   0.1000 
@<TRIPOS>BOND
1     2     1     ar
2     3     2     1
3     4     2     ar
4     5     4     1
5     6     4     ar
6     7     6     ar
7     8     7     1
8     9     8     1
9     10    8     1
10    11    10    1
11    12    11    ar
12    13    12    1
13    14    12    ar
14    15    14    1
15    16    14    ar
16    17    16    1
17    18    16    ar
18    19    11    ar
19    19    18    ar
20    20    19    1
21    21    1     ar
22    21    7     ar
23    21    20    1
24    22    6     1
25    23    22    1
26    24    22    1
27    25    22    1
28    26    10    2
29    27    20    1
30    28    27    1
31    29    27    1
32    30    29    1
33    31    29    1
34    32    27    1
35    32    29    1
36    33    32    1
37    34    32    1
@<TRIPOS>SUBSTRUCTURE
1   LIG    1    
 
########## Name        : 1VRT.lig
########## Description : AM1BCC_CHARGES =  -0.0002 ORIGINAL_CHARGES =  -0.0000

@<TRIPOS>MOLECULE
1VRT.lig
34    37    1     0     0    
SMALL
USER_CHARGES
@<TRIPOS>ATOM
1     N1       4.0540  -36.9310   22.2210 N.ar    1  LIG  -0.6650  -0.6200 
2     C1       4.9660  -36.2380   22.9390 C.ar    1  LIG   0.3947   0.1600 
3     H1       6.0082  -36.2811   22.6707 H       1  LIG   0.0281   0.1500 
4     C2       4.6240  -35.4500   24.0360 C.ar    1  LIG  -0.2334  -0.1500 
5     H2       5.3884  -34.9151   24.5740 H       1  LIG   0.1480   0.1500 
6     C3       3.3050  -35.3690   24.4150 C.ar    1  LIG  -0.0698  -0.1435 
7     C4       2.3460  -36.0770   23.6860 C.ar    1  LIG  -0.0398   0.1170 
8     N2       0.9890  -36.0280   24.1030 N.am    1  LIG  -0.4596  -0.5470 
9     H3       0.7643  -35.9928   25.0860 H       1  LIG   0.3311   0.3700 
10    C5      -0.1450  -36.0180   23.4080 C.2     1  LIG   0.7361   0.5438 
11    C6      -0.1190  -36.0770   21.8860 C.ar    1  LIG  -0.2550   0.0862 
12    C7      -1.1230  -35.3990   21.1890 C.ar    1  LIG  -0.0321  -0.1500 
13    H4      -1.7552  -34.6955   21.7041 H       1  LIG   0.1623   0.1500 
14    C8      -1.2960  -35.6300   19.8690 C.ar    1  LIG  -0.2723  -0.1500 
15    H5      -2.0662  -35.1073   19.3273 H       1  LIG   0.1522   0.1500 
16    C9      -0.4670  -36.5450   19.2400 C.ar    1  LIG   0.4373   0.1600 
17    H6      -0.5947  -36.7554   18.1915 H       1  LIG   0.0280   0.1500 
18    N3       0.5220  -37.2120   19.8740 N.ar    1  LIG  -0.6893  -0.6200 
19    C10      0.7040  -36.9790   21.1800 C.ar    1  LIG   0.6480   0.4100 
20    N4       1.7670  -37.6730   21.8260 N.pl3   1  LIG  -0.6924  -0.3690 
21    C11      2.7540  -36.8570   22.5840 C.ar    1  LIG   0.5805   0.4100 
22    C12      2.9040  -34.5090   25.6010 C.3     1  LIG  -0.0620   0.1435 
23    H7       2.2235  -33.7630   25.2820 H       1  LIG   0.0570   0.0000 
24    H8       2.4436  -35.1154   26.3371 H       1  LIG   0.0495   0.0000 
25    H9       3.7654  -34.0491   26.0108 H       1  LIG   0.0519   0.0000 
26    O1      -1.2400  -35.9060   23.9770 O.2     1  LIG  -0.6361  -0.5700 
27    C13      2.3440  -38.7570   21.0360 C.3     1  LIG   0.1354   0.0690 
28    H10      3.1238  -38.3754   20.4296 H       1  LIG   0.0981   0.1000 
29    C14      2.9380  -39.8900   21.8010 C.3     1  LIG  -0.1181  -0.2000 
30    H11      3.8890  -40.1268   21.3997 H       1  LIG   0.0732   0.1000 
31    H12      3.0430  -39.6129   22.8177 H       1  LIG   0.0789   0.1000 
32    C15      1.6390  -40.0610   21.0880 C.3     1  LIG  -0.1196  -0.2000 
33    H13      0.6832  -39.9283   21.5242 H       1  LIG   0.0807   0.1000 
34    H14      1.5292  -40.4423   20.1061 H       1  LIG   0.0733   0.1000 
@<TRIPOS>BOND
1     2     1     ar
2     3     2     1
3     4     2     ar
4     5     4     1
5     6     4     ar
6     7     6     ar
7     8     7     1
8     9     8     1
9     10    8     1
10    11    10    1
11    12    11    ar
12    13    12    1
13    14    12    ar
14    15    14    1
15    16    14    ar
16    17    16    1
17    18    16    ar
18    19    11    ar
19    19    18    ar
20    20    19    1
21    21    1     ar
22    21    7     ar
23    21    20    1
24    22    6     1
25    23    22    1
26    24    22    1
27    25    22    1
28    26    10    2
29    27    20    1
30    28    27    1
31    29    27    1
32    30    29    1
33    31    29    1
34    32    27    1
35    32    29    1
36    33    32    1
37    34    32    1
@<TRIPOS>SUBSTRUCTURE
1   LIG    1    
 
########## Name        : 1VRT.lig
########## Description : AM1BCC_CHARGES =  -0.0002 ORIGINAL_CHARGES =  -0.0000

@<TRIPOS>MOLECULE
1VRT.lig
34    37    1     0     0    
SMALL
USER_CHARGES
@<TRIPOS>ATOM
1     N1       4.0540  -36.9310   22.2210 N.ar    1  LIG  -0.6650  -0.6200 
2     C1       4.9660  -36.2380   22.9390 C.ar    1  LIG   0.3947   0.1600 
3     H1       6.0082  -36.2811   22.6707 H       1  LIG   0.0281   0.1500 
4     C2       4.6240  -35.4500   24.0360 C.ar    1  LIG  -0.2334  -0.1500 
5     H2       5.3884  -34.9151   24.5740 H       1  LIG   0.1480   0.1500 
6     C3       3.3050  -35.3690   24.4150 C.ar    1  LIG  -0.0698  -0.1435 
7     C4       2.3460  -36.0770   23.6860 C.ar    1  LIG  -0.0398   0.1170 
8     N2       0.9890  -36.0280   24.1030 N.am    1  LIG  -0.4596  -0.5470 
9     H3       0.7643  -35.9928   25.0860 H       1  LIG   0.3311   0.3700 
10    C5      -0.1450  -36.0180   23.4080 C.2     1  LIG   0.7361   0.5438 
11    C6      -0.1190  -36.0770   21.8860 C.ar    1  LIG  -0.2550   0.0862 
12    C7      -1.1230  -35.3990   21.1890 C.ar    1  LIG  -0.0321  -0.1500 
13    H4      -1.7552  -34.6955   21.7041 H       1  LIG   0.1623   0.1500 
14    C8      -1.2960  -35.6300   19.8690 C.ar    1  LIG  -0.2723  -0.1500 
15    H5      -2.0662  -35.1073   19.3273 H       1  LIG   0.1522   0.1500 
16    C9      -0.4670  -36.5450   19.2400 C.ar    1  LIG   0.4373   0.1600 
17    H6      -0.5947  -36.7554   18.1915 H       1  LIG   0.0280   0.1500 
18    N3       0.5220  -37.2120   19.8740 N.ar    1  LIG  -0.6893  -0.6200 
19    C10      0.7040  -36.9790   21.1800 C.ar    1  LIG   0.6480   0.4100 
20    N4       1.7670  -37.6730   21.8260 N.pl3   1  LIG  -0.6924  -0.3690 
21    C11      2.7540  -36.8570   22.5840 C.ar    1  LIG   0.5805   0.4100 
22    C12      2.9040  -34.5090   25.6010 C.3     1  LIG  -0.0620   0.1435 
23    H7       2.2235  -33.7630   25.2820 H       1  LIG   0.0570   0.0000 
24    H8       2.4436  -35.1154   26.3371 H       1  LIG   0.0495   0.0000 
25    H9       3.7654  -34.0491   26.0108 H       1  LIG   0.0519   0.0000 
26    O1      -1.2400  -35.9060   23.9770 O.2     1  LIG  -0.6361  -0.5700 
27    C13      2.3440  -38.7570   21.0360 C.3     1  LIG   0.1354   0.0690 
28    H10      3.1238  -38.3754   20.4296 H       1  LIG   0.0981   0.1000 
29    C14      2.9380  -39.8900   21.8010 C.3     1  LIG  -0.1181  -0.2000 
30    H11      3.8890  -40.1268   21.3997 H       1  LIG   0.0732   0.1000 
31    H12      3.0430  -39.6129   22.8177 H       1  LIG   0.0789   0.1000 
32    C15      1.6390  -40.0610   21.0880 C.3     1  LIG  -0.1196  -0.2000 
33    H13      0.6832  -39.9283   21.5242 H       1  LIG   0.0807   0.1000 
34    H14      1.5292  -40.4423   20.1061 H       1  LIG   0.0733   0.1000 
@<TRIPOS>BOND
1     2     1     ar
2     3     2     1
3     4     2     ar
4     5     4     1
5     6     4     ar
6     7     6     ar
7     8     7     1
8     9     8     1
9     10    8     1
10    11    10    1
11    12    11    ar
12    13    12    1
13    14    12    ar
14    15    14    1
15    16    14    ar
16    17    16    1
17    18    16    ar
18    19    11    ar
19    19    18    ar
20    20    19    1
21    21    1     ar
22    21    7     ar
23    21    20    1
24    22    6     1
25    23    22    1
26    24    22    1
27    25    22    1
28    26    10    2
29    27    20    1
30    28    27    1
31    29    27    1
32    30    29    1
33    31    29    1
34    32    27    1
35    32    29    1
36    33    32    1
37    34    32    1
@<TRIPOS>SUBSTRUCTURE
1   LIG    1    
 
########## Name        : 1VRT.lig
########## Description : AM1BCC_CHARGES =  -0.0002 ORIGINAL_CHARGES =  -0.0000

@<TRIPOS>MOLECULE
1VRT.lig
34    37    1     0     0    
SMALL
USER_CHARGES
@<TRIPOS>ATOM
1     N1       4.0540  -36.9310   22.2210 N.ar    1  LIG  -0.6650  -0.6200 
2     C1       4.9660  -36.2380   22.9390 C.ar    1  LIG   0.3947   0.1600 
3     H1       6.0082  -36.2811   22.6707 H       1  LIG   0.0281   0.1500 
4     C2       4.6240  -35.4500   24.0360 C.ar    1  LIG  -0.2334  -0.1500 
5     H2       5.3884  -34.9151   24.5740 H       1  LIG   0.1480   0.1500 
6     C3       3.3050  -35.3690   24.4150 C.ar    1  LIG  -0.0698  -0.1435 
7     C4       2.3460  -36.0770   23.6860 C.ar    1  LIG  -0.0398   0.1170 
8     N2       0.9890  -36.0280   24.1030 N.am    1  LIG  -0.4596  -0.5470 
9     H3       0.7643  -35.9928   25.0860 H       1  LIG   0.3311   0.3700 
10    C5      -0.1450  -36.0180   23.4080 C.2     1  LIG   0.7361   0.5438 
11    C6      -0.1190  -36.0770   21.8860 C.ar    1  LIG  -0.2550   0.0862 
12    C7      -1.1230  -35.3990   21.1890 C.ar    1  LIG  -0.0321  -0.1500 
13    H4      -1.7552  -34.6955   21.7041 H       1  LIG   0.1623   0.1500 
14    C8      -1.2960  -35.6300   19.8690 C.ar    1  LIG  -0.2723  -0.1500 
15    H5      -2.0662  -35.1073   19.3273 H       1  LIG   0.1522   0.1500 
16    C9      -0.4670  -36.5450   19.2400 C.ar    1  LIG   0.4373   0.1600 
17    H6      -0.5947  -36.7554   18.1915 H       1  LIG   0.0280   0.1500 
18    N3       0.5220  -37.2120   19.8740 N.ar    1  LIG  -0.6893  -0.6200 
19    C10      0.7040  -36.9790   21.1800 C.ar    1  LIG   0.6480   0.4100 
20    N4       1.7670  -37.6730   21.8260 N.pl3   1  LIG  -0.6924  -0.3690 
21    C11      2.7540  -36.8570   22.5840 C.ar    1  LIG   0.5805   0.4100 
22    C12      2.9040  -34.5090   25.6010 C.3     1  LIG  -0.0620   0.1435 
23    H7       2.2235  -33.7630   25.2820 H       1  LIG   0.0570   0.0000 
24    H8       2.4436  -35.1154   26.3371 H       1  LIG   0.0495   0.0000 
25    H9       3.7654  -34.0491   26.0108 H       1  LIG   0.0519   0.0000 
26    O1      -1.2400  -35.9060   23.9770 O.2     1  LIG  -0.6361  -0.5700 
27    C13      2.3440  -38.7570   21.0360 C.3     1  LIG   0.1354   0.0690 
28    H10      3.1238  -38.3754   20.4296 H       1  LIG   0.0981   0.1000 
29    C14      2.9380  -39.8900   21.8010 C.3     1  LIG  -0.1181  -0.2000 
30    H11      3.8890  -40.1268   21.3997 H       1  LIG   0.0732   0.1000 
31    H12      3.0430  -39.6129   22.8177 H       1  LIG   0.0789   0.1000 
32    C15      1.6390  -40.0610   21.0880 C.3     1  LIG  -0.1196  -0.2000 
33    H13      0.6832  -39.9283   21.5242 H       1  LIG   0.0807   0.1000 
34    H14      1.5292  -40.4423   20.1061 H       1  LIG   0.0733   0.1000 
@<TRIPOS>BOND
1     2     1     ar
2     3     2     1
3     4     2     ar
4     5     4     1
5     6     4     ar
6     7     6     ar
7     8     7     1
8     9     8     1
9     10    8     1
10    11    10    1
11    12    11    ar
12    13    12    1
13    14    12    ar
14    15    14    1
15    16    14    ar
16    17    16    1
17    18    16    ar
18    19    11    ar
19    19    18    ar
20    20    19    1
21    21    1     ar
22    21    7     ar
23    21    20    1
24    22    6     1
25    23    22    1
26    24    22    1
27    25    22    1
28    26    10    2
29    27    20    1
30    28    27    1
31    29    27    1
32    30    29    1
33    31    29    1
34    32    27    1
35    32    29    1
36    33    32    1
37    34    32    1
@<TRIPOS>SUBSTRUCTURE
1   LIG    1    
 
########## Name        : 1VRT.lig
########## Description : AM1BCC_CHARGES =  -0.0002 ORIGINAL_CHARGES =  -0.0000

@<TRIPOS>MOLECULE
1VRT.lig
34    37    1     0     0    
SMALL
USER_CHARGES
@<TRIPOS>ATOM
1     N1       4.0540  -36.9310   22.2210 N.ar    1  LIG  -0.6650  -0.6200 
2     C1       4.9660  -36.2380   22.9390 C.ar    1  LIG   0.3947   0.1600 
3     H1       6.0082  -36.2811   22.6707 H       1  LIG   0.0281   0.1500 
4     C2       4.6240  -35.4500   24.0360 C.ar    1  LIG  -0.2334  -0.1500 
5     H2       5.3884  -34.9151   24.5740 H       1  LIG   0.1480   0.1500 
6     C3       3.3050  -35.3690   24.4150 C.ar    1  LIG  -0.0698  -0.1435 
7     C4       2.3460  -36.0770   23.6860 C.ar    1  LIG  -0.0398   0.1170 
8     N2       0.9890  -36.0280   24.1030 N.am    1  LIG  -0.4596  -0.5470 
9     H3       0.7643  -35.9928   25.0860 H       1  LIG   0.3311   0.3700 
10    C5      -0.1450  -36.0180   23.4080 C.2     1  LIG   0.7361   0.5438 
11    C6      -0.1190  -36.0770   21.8860 C.ar    1  LIG  -0.2550   0.0862 
12    C7      -1.1230  -35.3990   21.1890 C.ar    1  LIG  -0.0321  -0.1500 
13    H4      -1.7552  -34.6955   21.7041 H       1  LIG   0.1623   0.1500 
14    C8      -1.2960  -35.6300   19.8690 C.ar    1  LIG  -0.2723  -0.1500 
15    H5      -2.0662  -35.1073   19.3273 H       1  LIG   0.1522   0.1500 
16    C9      -0.4670  -36.5450   19.2400 C.ar    1  LIG   0.4373   0.1600 
17    H6      -0.5947  -36.7554   18.1915 H       1  LIG   0.0280   0.1500 
18    N3       0.5220  -37.2120   19.8740 N.ar    1  LIG  -0.6893  -0.6200 
19    C10      0.7040  -36.9790   21.1800 C.ar    1  LIG   0.6480   0.4100 
20    N4       1.7670  -37.6730   21.8260 N.pl3   1  LIG  -0.6924  -0.3690 
21    C11      2.7540  -36.8570   22.5840 C.ar    1  LIG   0.5805   0.4100 
22    C12      2.9040  -34.5090   25.6010 C.3     1  LIG  -0.0620   0.1435 
23    H7       2.2235  -33.7630   25.2820 H       1  LIG   0.0570   0.0000 
24    H8       2.4436  -35.1154   26.3371 H       1  LIG   0.0495   0.0000 
25    H9       3.7654  -34.0491   26.0108 H       1  LIG   0.0519   0.0000 
26    O1      -1.2400  -35.9060   23.9770 O.2     1  LIG  -0.6361  -0.5700 
27    C13      2.3440  -38.7570   21.0360 C.3     1  LIG   0.1354   0.0690 
28    H10      3.1238  -38.3754   20.4296 H       1  LIG   0.0981   0.1000 
29    C14      2.9380  -39.8900   21.8010 C.3     1  LIG  -0.1181  -0.2000 
30    H11      3.8890  -40.1268   21.3997 H       1  LIG   0.0732   0.1000 
31    H12      3.0430  -39.6129   22.8177 H       1  LIG   0.0789   0.1000 
32    C15      1.6390  -40.0610   21.0880 C.3     1  LIG  -0.1196  -0.2000 
33    H13      0.6832  -39.9283   21.5242 H       1  LIG   0.0807   0.1000 
34    H14      1.5292  -40.4423   20.1061 H       1  LIG   0.0733   0.1000 
@<TRIPOS>BOND
1     2     1     ar
2     3     2     1
3     4     2     ar
4     5     4     1
5     6     4     ar
6     7     6     ar
7     8     7     1
8     9     8     1
9     10    8     1
10    11    10    1
11    12    11    ar
12    13    12    1
13    14    12    ar
14    15    14    1
15    16    14    ar
16    17    16    1
17    18    16    ar
18    19    11    ar
19    19    18    ar
20    20    19    1
21    21    1     ar
22    21    7     ar
23    21    20    1
24    22    6     1
25    23    22    1
26    24    22    1
27    25    22    1
28    26    10    2
29    27    20    1
30    28    27    1
31    29    27    1
32    30    29    1
33    31    29    1
34    32    27    1
35    32    29    1
36    33    32    1
37    34    32    1
@<TRIPOS>SUBSTRUCTURE
1   LIG    1    
 
########## Name        : 1VRT.lig
########## Description : AM1BCC_CHARGES =  -0.0002 ORIGINAL_CHARGES =  -0.0000

@<TRIPOS>MOLECULE
1VRT.lig
34    37    1     0     0    
SMALL
USER_CHARGES
@<TRIPOS>ATOM
1     N1       4.0540  -36.9310   22.2210 N.ar    1  LIG  -0.6650  -0.6200 
2     C1       4.9660  -36.2380   22.9390 C.ar    1  LIG   0.3947   0.1600 
3     H1       6.0082  -36.2811   22.6707 H       1  LIG   0.0281   0.1500 
4     C2       4.6240  -35.4500   24.0360 C.ar    1  LIG  -0.2334  -0.1500 
5     H2       5.3884  -34.9151   24.5740 H       1  LIG   0.1480   0.1500 
6     C3       3.3050  -35.3690   24.4150 C.ar    1  LIG  -0.0698  -0.1435 
7     C4       2.3460  -36.0770   23.6860 C.ar    1  LIG  -0.0398   0.1170 
8     N2       0.9890  -36.0280   24.1030 N.am    1  LIG  -0.4596  -0.5470 
9     H3       0.7643  -35.9928   25.0860 H       1  LIG   0.3311   0.3700 
10    C5      -0.1450  -36.0180   23.4080 C.2     1  LIG   0.7361   0.5438 
11    C6      -0.1190  -36.0770   21.8860 C.ar    1  LIG  -0.2550   0.0862 
12    C7      -1.1230  -35.3990   21.1890 C.ar    1  LIG  -0.0321  -0.1500 
13    H4      -1.7552  -34.6955   21.7041 H       1  LIG   0.1623   0.1500 
14    C8      -1.2960  -35.6300   19.8690 C.ar    1  LIG  -0.2723  -0.1500 
15    H5      -2.0662  -35.1073   19.3273 H       1  LIG   0.1522   0.1500 
16    C9      -0.4670  -36.5450   19.2400 C.ar    1  LIG   0.4373   0.1600 
17    H6      -0.5947  -36.7554   18.1915 H       1  LIG   0.0280   0.1500 
18    N3       0.5220  -37.2120   19.8740 N.ar    1  LIG  -0.6893  -0.6200 
19    C10      0.7040  -36.9790   21.1800 C.ar    1  LIG   0.6480   0.4100 
20    N4       1.7670  -37.6730   21.8260 N.pl3   1  LIG  -0.6924  -0.3690 
21    C11      2.7540  -36.8570   22.5840 C.ar    1  LIG   0.5805   0.4100 
22    C12      2.9040  -34.5090   25.6010 C.3     1  LIG  -0.0620   0.1435 
23    H7       2.2235  -33.7630   25.2820 H       1  LIG   0.0570   0.0000 
24    H8       2.4436  -35.1154   26.3371 H       1  LIG   0.0495   0.0000 
25    H9       3.7654  -34.0491   26.0108 H       1  LIG   0.0519   0.0000 
26    O1      -1.2400  -35.9060   23.9770 O.2     1  LIG  -0.6361  -0.5700 
27    C13      2.3440  -38.7570   21.0360 C.3     1  LIG   0.1354   0.0690 
28    H10      3.1238  -38.3754   20.4296 H       1  LIG   0.0981   0.1000 
29    C14      2.9380  -39.8900   21.8010 C.3     1  LIG  -0.1181  -0.2000 
30    H11      3.8890  -40.1268   21.3997 H       1  LIG   0.0732   0.1000 
31    H12      3.0430  -39.6129   22.8177 H       1  LIG   0.0789   0.1000 
32    C15      1.6390  -40.0610   21.0880 C.3     1  LIG  -0.1196  -0.2000 
33    H13      0.6832  -39.9283   21.5242 H       1  LIG   0.0807   0.1000 
34    H14      1.5292  -40.4423   20.1061 H       1  LIG   0.0733   0.1000 
@<TRIPOS>BOND
1     2     1     ar
2     3     2     1
3     4     2     ar
4     5     4     1
5     6     4     ar
6     7     6     ar
7     8     7     1
8     9     8     1
9     10    8     1
10    11    10    1
11    12    11    ar
12    13    12    1
13    14    12    ar
14    15    14    1
15    16    14    ar
16    17    16    1
17    18    16    ar
18    19    11    ar
19    19    18    ar
20    20    19    1
21    21    1     ar
22    21    7     ar
23    21    20    1
24    22    6     1
25    23    22    1
26    24    22    1
27    25    22    1
28    26    10    2
29    27    20    1
30    28    27    1
31    29    27    1
32    30    29    1
33    31    29    1
34    32    27    1
35    32    29    1
36    33    32    1
37    34    32    1
@<TRIPOS>SUBSTRUCTURE
1   LIG    1    
 
########## Name        : 1VRT.lig
########## Description : AM1BCC_CHARGES =  -0.0002 ORIGINAL_CHARGES =  -0.0000

@<TRIPOS>MOLECULE
1VRT.lig
34    37    1     0     0    
SMALL
USER_CHARGES
@<TRIPOS>ATOM
1     N1       4.0540  -36.9310   22.2210 N.ar    1  LIG  -0.6650  -0.6200 
2     C1       4.9660  -36.2380   22.9390 C.ar    1  LIG   0.3947   0.1600 
3     H1       6.0082  -36.2811   22.6707 H       1  LIG   0.0281   0.1500 
4     C2       4.6240  -35.4500   24.0360 C.ar    1  LIG  -0.2334  -0.1500 
5     H2       5.3884  -34.9151   24.5740 H       1  LIG   0.1480   0.1500 
6     C3       3.3050  -35.3690   24.4150 C.ar    1  LIG  -0.0698  -0.1435 
7     C4       2.3460  -36.0770   23.6860 C.ar    1  LIG  -0.0398   0.1170 
8     N2       0.9890  -36.0280   24.1030 N.am    1  LIG  -0.4596  -0.5470 
9     H3       0.7643  -35.9928   25.0860 H       1  LIG   0.3311   0.3700 
10    C5      -0.1450  -36.0180   23.4080 C.2     1  LIG   0.7361   0.5438 
11    C6      -0.1190  -36.0770   21.8860 C.ar    1  LIG  -0.2550   0.0862 
12    C7      -1.1230  -35.3990   21.1890 C.ar    1  LIG  -0.0321  -0.1500 
13    H4      -1.7552  -34.6955   21.7041 H       1  LIG   0.1623   0.1500 
14    C8      -1.2960  -35.6300   19.8690 C.ar    1  LIG  -0.2723  -0.1500 
15    H5      -2.0662  -35.1073   19.3273 H       1  LIG   0.1522   0.1500 
16    C9      -0.4670  -36.5450   19.2400 C.ar    1  LIG   0.4373   0.1600 
17    H6      -0.5947  -36.7554   18.1915 H       1  LIG   0.0280   0.1500 
18    N3       0.5220  -37.2120   19.8740 N.ar    1  LIG  -0.6893  -0.6200 
19    C10      0.7040  -36.9790   21.1800 C.ar    1  LIG   0.6480   0.4100 
20    N4       1.7670  -37.6730   21.8260 N.pl3   1  LIG  -0.6924  -0.3690 
21    C11      2.7540  -36.8570   22.5840 C.ar    1  LIG   0.5805   0.4100 
22    C12      2.9040  -34.5090   25.6010 C.3     1  LIG  -0.0620   0.1435 
23    H7       2.2235  -33.7630   25.2820 H       1  LIG   0.0570   0.0000 
24    H8       2.4436  -35.1154   26.3371 H       1  LIG   0.0495   0.0000 
25    H9       3.7654  -34.0491   26.0108 H       1  LIG   0.0519   0.0000 
26    O1      -1.2400  -35.9060   23.9770 O.2     1  LIG  -0.6361  -0.5700 
27    C13      2.3440  -38.7570   21.0360 C.3     1  LIG   0.1354   0.0690 
28    H10      3.1238  -38.3754   20.4296 H       1  LIG   0.0981   0.1000 
29    C14      2.9380  -39.8900   21.8010 C.3     1  LIG  -0.1181  -0.2000 
30    H11      3.8890  -40.1268   21.3997 H       1  LIG   0.0732   0.1000 
31    H12      3.0430  -39.6129   22.8177 H       1  LIG   0.0789   0.1000 
32    C15      1.6390  -40.0610   21.0880 C.3     1  LIG  -0.1196  -0.2000 
33    H13      0.6832  -39.9283   21.5242 H       1  LIG   0.0807   0.1000 
34    H14      1.5292  -40.4423   20.1061 H       1  LIG   0.0733   0.1000 
@<TRIPOS>BOND
1     2     1     ar
2     3     2     1
3     4     2     ar
4     5     4     1
5     6     4     ar
6     7     6     ar
7     8     7     1
8     9     8     1
9     10    8     1
10    11    10    1
11    12    11    ar
12    13    12    1
13    14    12    ar
14    15    14    1
15    16    14    ar
16    17    16    1
17    18    16    ar
18    19    11    ar
19    19    18    ar
20    20    19    1
21    21    1     ar
22    21    7     ar
23    21    20    1
24    22    6     1
25    23    22    1
26    24    22    1
27    25    22    1
28    26    10    2
29    27    20    1
30    28    27    1
31    29    27    1
32    30    29    1
33    31    29    1
34    32    27    1
35    32    29    1
36    33    32    1
37    34    32    1
@<TRIPOS>SUBSTRUCTURE
1   LIG    1    
 
########## Name        : 1VRT.lig
########## Description : AM1BCC_CHARGES =  -0.0002 ORIGINAL_CHARGES =  -0.0000

@<TRIPOS>MOLECULE
1VRT.lig
34    37    1     0     0    
SMALL
USER_CHARGES
@<TRIPOS>ATOM
1     N1       4.0540  -36.9310   22.2210 N.ar    1  LIG  -0.6650  -0.6200 
2     C1       4.9660  -36.2380   22.9390 C.ar    1  LIG   0.3947   0.1600 
3     H1       6.0082  -36.2811   22.6707 H       1  LIG   0.0281   0.1500 
4     C2       4.6240  -35.4500   24.0360 C.ar    1  LIG  -0.2334  -0.1500 
5     H2       5.3884  -34.9151   24.5740 H       1  LIG   0.1480   0.1500 
6     C3       3.3050  -35.3690   24.4150 C.ar    1  LIG  -0.0698  -0.1435 
7     C4       2.3460  -36.0770   23.6860 C.ar    1  LIG  -0.0398   0.1170 
8     N2       0.9890  -36.0280   24.1030 N.am    1  LIG  -0.4596  -0.5470 
9     H3       0.7643  -35.9928   25.0860 H       1  LIG   0.3311   0.3700 
10    C5      -0.1450  -36.0180   23.4080 C.2     1  LIG   0.7361   0.5438 
11    C6      -0.1190  -36.0770   21.8860 C.ar    1  LIG  -0.2550   0.0862 
12    C7      -1.1230  -35.3990   21.1890 C.ar    1  LIG  -0.0321  -0.1500 
13    H4      -1.7552  -34.6955   21.7041 H       1  LIG   0.1623   0.1500 
14    C8      -1.2960  -35.6300   19.8690 C.ar    1  LIG  -0.2723  -0.1500 
15    H5      -2.0662  -35.1073   19.3273 H       1  LIG   0.1522   0.1500 
16    C9      -0.4670  -36.5450   19.2400 C.ar    1  LIG   0.4373   0.1600 
17    H6      -0.5947  -36.7554   18.1915 H       1  LIG   0.0280   0.1500 
18    N3       0.5220  -37.2120   19.8740 N.ar    1  LIG  -0.6893  -0.6200 
19    C10      0.7040  -36.9790   21.1800 C.ar    1  LIG   0.6480   0.4100 
20    N4       1.7670  -37.6730   21.8260 N.pl3   1  LIG  -0.6924  -0.3690 
21    C11      2.7540  -36.8570   22.5840 C.ar    1  LIG   0.5805   0.4100 
22    C12      2.9040  -34.5090   25.6010 C.3     1  LIG  -0.0620   0.1435 
23    H7       2.2235  -33.7630   25.2820 H       1  LIG   0.0570   0.0000 
24    H8       2.4436  -35.1154   26.3371 H       1  LIG   0.0495   0.0000 
25    H9       3.7654  -34.0491   26.0108 H       1  LIG   0.0519   0.0000 
26    O1      -1.2400  -35.9060   23.9770 O.2     1  LIG  -0.6361  -0.5700 
27    C13      2.3440  -38.7570   21.0360 C.3     1  LIG   0.1354   0.0690 
28    H10      3.1238  -38.3754   20.4296 H       1  LIG   0.0981   0.1000 
29    C14      2.9380  -39.8900   21.8010 C.3     1  LIG  -0.1181  -0.2000 
30    H11      3.8890  -40.1268   21.3997 H       1  LIG   0.0732   0.1000 
31    H12      3.0430  -39.6129   22.8177 H       1  LIG   0.0789   0.1000 
32    C15      1.6390  -40.0610   21.0880 C.3     1  LIG  -0.1196  -0.2000 
33    H13      0.6832  -39.9283   21.5242 H       1  LIG   0.0807   0.1000 
34    H14      1.5292  -40.4423   20.1061 H       1  LIG   0.0733   0.1000 
@<TRIPOS>BOND
1     2     1     ar
2     3     2     1
3     4     2     ar
4     5     4     1
5     6     4     ar
6     7     6     ar
7     8     7     1
8     9     8     1
9     10    8     1
10    11    10    1
11    12    11    ar
12    13    12    1
13    14    12    ar
14    15    14    1
15    16    14    ar
16    17    16    1
17    18    16    ar
18    19    11    ar
19    19    18    ar
20    20    19    1
21    21    1     ar
22    21    7     ar
23    21    20    1
24    22    6     1
25    23    22    1
26    24    22    1
27    25    22    1
28    26    10    2
29    27    20    1
30    28    27    1
31    29    27    1
32    30    29    1
33    31    29    1
34    32    27    1
35    32    29    1
36    33    32    1
37    34    32    1
@<TRIPOS>SUBSTRUCTURE
1   LIG    1    
 
########## Name        : 1VRT.lig
########## Description : AM1BCC_CHARGES =  -0.0002 ORIGINAL_CHARGES =  -0.0000

@<TRIPOS>MOLECULE
1VRT.lig
34    37    1     0     0    
SMALL
USER_CHARGES
@<TRIPOS>ATOM
1     N1       4.0540  -36.9310   22.2210 N.ar    1  LIG  -0.6650  -0.6200 
2     C1       4.9660  -36.2380   22.9390 C.ar    1  LIG   0.3947   0.1600 
3     H1       6.0082  -36.2811   22.6707 H       1  LIG   0.0281   0.1500 
4     C2       4.6240  -35.4500   24.0360 C.ar    1  LIG  -0.2334  -0.1500 
5     H2       5.3884  -34.9151   24.5740 H       1  LIG   0.1480   0.1500 
6     C3       3.3050  -35.3690   24.4150 C.ar    1  LIG  -0.0698  -0.1435 
7     C4       2.3460  -36.0770   23.6860 C.ar    1  LIG  -0.0398   0.1170 
8     N2       0.9890  -36.0280   24.1030 N.am    1  LIG  -0.4596  -0.5470 
9     H3       0.7643  -35.9928   25.0860 H       1  LIG   0.3311   0.3700 
10    C5      -0.1450  -36.0180   23.4080 C.2     1  LIG   0.7361   0.5438 
11    C6      -0.1190  -36.0770   21.8860 C.ar    1  LIG  -0.2550   0.0862 
12    C7      -1.1230  -35.3990   21.1890 C.ar    1  LIG  -0.0321  -0.1500 
13    H4      -1.7552  -34.6955   21.7041 H       1  LIG   0.1623   0.1500 
14    C8      -1.2960  -35.6300   19.8690 C.ar    1  LIG  -0.2723  -0.1500 
15    H5      -2.0662  -35.1073   19.3273 H       1  LIG   0.1522   0.1500 
16    C9      -0.4670  -36.5450   19.2400 C.ar    1  LIG   0.4373   0.1600 
17    H6      -0.5947  -36.7554   18.1915 H       1  LIG   0.0280   0.1500 
18    N3       0.5220  -37.2120   19.8740 N.ar    1  LIG  -0.6893  -0.6200 
19    C10      0.7040  -36.9790   21.1800 C.ar    1  LIG   0.6480   0.4100 
20    N4       1.7670  -37.6730   21.8260 N.pl3   1  LIG  -0.6924  -0.3690 
21    C11      2.7540  -36.8570   22.5840 C.ar    1  LIG   0.5805   0.4100 
22    C12      2.9040  -34.5090   25.6010 C.3     1  LIG  -0.0620   0.1435 
23    H7       2.2235  -33.7630   25.2820 H       1  LIG   0.0570   0.0000 
24    H8       2.4436  -35.1154   26.3371 H       1  LIG   0.0495   0.0000 
25    H9       3.7654  -34.0491   26.0108 H       1  LIG   0.0519   0.0000 
26    O1      -1.2400  -35.9060   23.9770 O.2     1  LIG  -0.6361  -0.5700 
27    C13      2.3440  -38.7570   21.0360 C.3     1  LIG   0.1354   0.0690 
28    H10      3.1238  -38.3754   20.4296 H       1  LIG   0.0981   0.1000 
29    C14      2.9380  -39.8900   21.8010 C.3     1  LIG  -0.1181  -0.2000 
30    H11      3.8890  -40.1268   21.3997 H       1  LIG   0.0732   0.1000 
31    H12      3.0430  -39.6129   22.8177 H       1  LIG   0.0789   0.1000 
32    C15      1.6390  -40.0610   21.0880 C.3     1  LIG  -0.1196  -0.2000 
33    H13      0.6832  -39.9283   21.5242 H       1  LIG   0.0807   0.1000 
34    H14      1.5292  -40.4423   20.1061 H       1  LIG   0.0733   0.1000 
@<TRIPOS>BOND
1     2     1     ar
2     3     2     1
3     4     2     ar
4     5     4     1
5     6     4     ar
6     7     6     ar
7     8     7     1
8     9     8     1
9     10    8     1
10    11    10    1
11    12    11    ar
12    13    12    1
13    14    12    ar
14    15    14    1
15    16    14    ar
16    17    16    1
17    18    16    ar
18    19    11    ar
19    19    18    ar
20    20    19    1
21    21    1     ar
22    21    7     ar
23    21    20    1
24    22    6     1
25    23    22    1
26    24    22    1
27    25    22    1
28    26    10    2
29    27    20    1
30    28    27    1
31    29    27    1
32    30    29    1
33    31    29    1
34    32    27    1
35    32    29    1
36    33    32    1
37    34    32    1
@<TRIPOS>SUBSTRUCTURE
1   LIG    1    
 
########## Name        : 1VRT.lig
########## Description : AM1BCC_CHARGES =  -0.0002 ORIGINAL_CHARGES =  -0.0000

@<TRIPOS>MOLECULE
1VRT.lig
34    37    1     0     0    
SMALL
USER_CHARGES
@<TRIPOS>ATOM
1     N1       4.0540  -36.9310   22.2210 N.ar    1  LIG  -0.6650  -0.6200 
2     C1       4.9660  -36.2380   22.9390 C.ar    1  LIG   0.3947   0.1600 
3     H1       6.0082  -36.2811   22.6707 H       1  LIG   0.0281   0.1500 
4     C2       4.6240  -35.4500   24.0360 C.ar    1  LIG  -0.2334  -0.1500 
5     H2       5.3884  -34.9151   24.5740 H       1  LIG   0.1480   0.1500 
6     C3       3.3050  -35.3690   24.4150 C.ar    1  LIG  -0.0698  -0.1435 
7     C4       2.3460  -36.0770   23.6860 C.ar    1  LIG  -0.0398   0.1170 
8     N2       0.9890  -36.0280   24.1030 N.am    1  LIG  -0.4596  -0.5470 
9     H3       0.7643  -35.9928   25.0860 H       1  LIG   0.3311   0.3700 
10    C5      -0.1450  -36.0180   23.4080 C.2     1  LIG   0.7361   0.5438 
11    C6      -0.1190  -36.0770   21.8860 C.ar    1  LIG  -0.2550   0.0862 
12    C7      -1.1230  -35.3990   21.1890 C.ar    1  LIG  -0.0321  -0.1500 
13    H4      -1.7552  -34.6955   21.7041 H       1  LIG   0.1623   0.1500 
14    C8      -1.2960  -35.6300   19.8690 C.ar    1  LIG  -0.2723  -0.1500 
15    H5      -2.0662  -35.1073   19.3273 H       1  LIG   0.1522   0.1500 
16    C9      -0.4670  -36.5450   19.2400 C.ar    1  LIG   0.4373   0.1600 
17    H6      -0.5947  -36.7554   18.1915 H       1  LIG   0.0280   0.1500 
18    N3       0.5220  -37.2120   19.8740 N.ar    1  LIG  -0.6893  -0.6200 
19    C10      0.7040  -36.9790   21.1800 C.ar    1  LIG   0.6480   0.4100 
20    N4       1.7670  -37.6730   21.8260 N.pl3   1  LIG  -0.6924  -0.3690 
21    C11      2.7540  -36.8570   22.5840 C.ar    1  LIG   0.5805   0.4100 
22    C12      2.9040  -34.5090   25.6010 C.3     1  LIG  -0.0620   0.1435 
23    H7       2.2235  -33.7630   25.2820 H       1  LIG   0.0570   0.0000 
24    H8       2.4436  -35.1154   26.3371 H       1  LIG   0.0495   0.0000 
25    H9       3.7654  -34.0491   26.0108 H       1  LIG   0.0519   0.0000 
26    O1      -1.2400  -35.9060   23.9770 O.2     1  LIG  -0.6361  -0.5700 
27    C13      2.3440  -38.7570   21.0360 C.3     1  LIG   0.1354   0.0690 
28    H10      3.1238  -38.3754   20.4296 H       1  LIG   0.0981   0.1000 
29    C14      2.9380  -39.8900   21.8010 C.3     1  LIG  -0.1181  -0.2000 
30    H11      3.8890  -40.1268   21.3997 H       1  LIG   0.0732   0.1000 
31    H12      3.0430  -39.6129   22.8177 H       1  LIG   0.0789   0.1000 
32    C15      1.6390  -40.0610   21.0880 C.3     1  LIG  -0.1196  -0.2000 
33    H13      0.6832  -39.9283   21.5242 H       1  LIG   0.0807   0.1000 
34    H14      1.5292  -40.4423   20.1061 H       1  LIG   0.0733   0.1000 
@<TRIPOS>BOND
1     2     1     ar
2     3     2     1
3     4     2     ar
4     5     4     1
5     6     4     ar
6     7     6     ar
7     8     7     1
8     9     8     1
9     10    8     1
10    11    10    1
11    12    11    ar
12    13    12    1
13    14    12    ar
14    15    14    1
15    16    14    ar
16    17    16    1
17    18    16    ar
18    19    11    ar
19    19    18    ar
20    20    19    1
21    21    1     ar
22    21    7     ar
23    21    20    1
24    22    6     1
25    23    22    1
26    24    22    1
27    25    22    1
28    26    10    2
29    27    20    1
30    28    27    1
31    29    27    1
32    30    29    1
33    31    29    1
34    32    27    1
35    32    29    1
36    33    32    1
37    34    32    1
@<TRIPOS>SUBSTRUCTURE
1   LIG    1    
 
########## Name        : 1VRT.lig
########## Description : AM1BCC_CHARGES =  -0.0002 ORIGINAL_CHARGES =  -0.0000

@<TRIPOS>MOLECULE
1VRT.lig
34    37    1     0     0    
SMALL
USER_CHARGES
@<TRIPOS>ATOM
1     N1       4.0540  -36.9310   22.2210 N.ar    1  LIG  -0.6650  -0.6200 
2     C1       4.9660  -36.2380   22.9390 C.ar    1  LIG   0.3947   0.1600 
3     H1       6.0082  -36.2811   22.6707 H       1  LIG   0.0281   0.1500 
4     C2       4.6240  -35.4500   24.0360 C.ar    1  LIG  -0.2334  -0.1500 
5     H2       5.3884  -34.9151   24.5740 H       1  LIG   0.1480   0.1500 
6     C3       3.3050  -35.3690   24.4150 C.ar    1  LIG  -0.0698  -0.1435 
7     C4       2.3460  -36.0770   23.6860 C.ar    1  LIG  -0.0398   0.1170 
8     N2       0.9890  -36.0280   24.1030 N.am    1  LIG  -0.4596  -0.5470 
9     H3       0.7643  -35.9928   25.0860 H       1  LIG   0.3311   0.3700 
10    C5      -0.1450  -36.0180   23.4080 C.2     1  LIG   0.7361   0.5438 
11    C6      -0.1190  -36.0770   21.8860 C.ar    1  LIG  -0.2550   0.0862 
12    C7      -1.1230  -35.3990   21.1890 C.ar    1  LIG  -0.0321  -0.1500 
13    H4      -1.7552  -34.6955   21.7041 H       1  LIG   0.1623   0.1500 
14    C8      -1.2960  -35.6300   19.8690 C.ar    1  LIG  -0.2723  -0.1500 
15    H5      -2.0662  -35.1073   19.3273 H       1  LIG   0.1522   0.1500 
16    C9      -0.4670  -36.5450   19.2400 C.ar    1  LIG   0.4373   0.1600 
17    H6      -0.5947  -36.7554   18.1915 H       1  LIG   0.0280   0.1500 
18    N3       0.5220  -37.2120   19.8740 N.ar    1  LIG  -0.6893  -0.6200 
19    C10      0.7040  -36.9790   21.1800 C.ar    1  LIG   0.6480   0.4100 
20    N4       1.7670  -37.6730   21.8260 N.pl3   1  LIG  -0.6924  -0.3690 
21    C11      2.7540  -36.8570   22.5840 C.ar    1  LIG   0.5805   0.4100 
22    C12      2.9040  -34.5090   25.6010 C.3     1  LIG  -0.0620   0.1435 
23    H7       2.2235  -33.7630   25.2820 H       1  LIG   0.0570   0.0000 
24    H8       2.4436  -35.1154   26.3371 H       1  LIG   0.0495   0.0000 
25    H9       3.7654  -34.0491   26.0108 H       1  LIG   0.0519   0.0000 
26    O1      -1.2400  -35.9060   23.9770 O.2     1  LIG  -0.6361  -0.5700 
27    C13      2.3440  -38.7570   21.0360 C.3     1  LIG   0.1354   0.0690 
28    H10      3.1238  -38.3754   20.4296 H       1  LIG   0.0981   0.1000 
29    C14      2.9380  -39.8900   21.8010 C.3     1  LIG  -0.1181  -0.2000 
30    H11      3.8890  -40.1268   21.3997 H       1  LIG   0.0732   0.1000 
31    H12      3.0430  -39.6129   22.8177 H       1  LIG   0.0789   0.1000 
32    C15      1.6390  -40.0610   21.0880 C.3     1  LIG  -0.1196  -0.2000 
33    H13      0.6832  -39.9283   21.5242 H       1  LIG   0.0807   0.1000 
34    H14      1.5292  -40.4423   20.1061 H       1  LIG   0.0733   0.1000 
@<TRIPOS>BOND
1     2     1     ar
2     3     2     1
3     4     2     ar
4     5     4     1
5     6     4     ar
6     7     6     ar
7     8     7     1
8     9     8     1
9     10    8     1
10    11    10    1
11    12    11    ar
12    13    12    1
13    14    12    ar
14    15    14    1
15    16    14    ar
16    17    16    1
17    18    16    ar
18    19    11    ar
19    19    18    ar
20    20    19    1
21    21    1     ar
22    21    7     ar
23    21    20    1
24    22    6     1
25    23    22    1
26    24    22    1
27    25    22    1
28    26    10    2
29    27    20    1
30    28    27    1
31    29    27    1
32    30    29    1
33    31    29    1
34    32    27    1
35    32    29    1
36    33    32    1
37    34    32    1
@<TRIPOS>SUBSTRUCTURE
1   LIG    1    
 
########## Name        : 1VRT.lig
########## Description : AM1BCC_CHARGES =  -0.0002 ORIGINAL_CHARGES =  -0.0000

@<TRIPOS>MOLECULE
1VRT.lig
34    37    1     0     0    
SMALL
USER_CHARGES
@<TRIPOS>ATOM
1     N1       4.0540  -36.9310   22.2210 N.ar    1  LIG  -0.6650  -0.6200 
2     C1       4.9660  -36.2380   22.9390 C.ar    1  LIG   0.3947   0.1600 
3     H1       6.0082  -36.2811   22.6707 H       1  LIG   0.0281   0.1500 
4     C2       4.6240  -35.4500   24.0360 C.ar    1  LIG  -0.2334  -0.1500 
5     H2       5.3884  -34.9151   24.5740 H       1  LIG   0.1480   0.1500 
6     C3       3.3050  -35.3690   24.4150 C.ar    1  LIG  -0.0698  -0.1435 
7     C4       2.3460  -36.0770   23.6860 C.ar    1  LIG  -0.0398   0.1170 
8     N2       0.9890  -36.0280   24.1030 N.am    1  LIG  -0.4596  -0.5470 
9     H3       0.7643  -35.9928   25.0860 H       1  LIG   0.3311   0.3700 
10    C5      -0.1450  -36.0180   23.4080 C.2     1  LIG   0.7361   0.5438 
11    C6      -0.1190  -36.0770   21.8860 C.ar    1  LIG  -0.2550   0.0862 
12    C7      -1.1230  -35.3990   21.1890 C.ar    1  LIG  -0.0321  -0.1500 
13    H4      -1.7552  -34.6955   21.7041 H       1  LIG   0.1623   0.1500 
14    C8      -1.2960  -35.6300   19.8690 C.ar    1  LIG  -0.2723  -0.1500 
15    H5      -2.0662  -35.1073   19.3273 H       1  LIG   0.1522   0.1500 
16    C9      -0.4670  -36.5450   19.2400 C.ar    1  LIG   0.4373   0.1600 
17    H6      -0.5947  -36.7554   18.1915 H       1  LIG   0.0280   0.1500 
18    N3       0.5220  -37.2120   19.8740 N.ar    1  LIG  -0.6893  -0.6200 
19    C10      0.7040  -36.9790   21.1800 C.ar    1  LIG   0.6480   0.4100 
20    N4       1.7670  -37.6730   21.8260 N.pl3   1  LIG  -0.6924  -0.3690 
21    C11      2.7540  -36.8570   22.5840 C.ar    1  LIG   0.5805   0.4100 
22    C12      2.9040  -34.5090   25.6010 C.3     1  LIG  -0.0620   0.1435 
23    H7       2.2235  -33.7630   25.2820 H       1  LIG   0.0570   0.0000 
24    H8       2.4436  -35.1154   26.3371 H       1  LIG   0.0495   0.0000 
25    H9       3.7654  -34.0491   26.0108 H       1  LIG   0.0519   0.0000 
26    O1      -1.2400  -35.9060   23.9770 O.2     1  LIG  -0.6361  -0.5700 
27    C13      2.3440  -38.7570   21.0360 C.3     1  LIG   0.1354   0.0690 
28    H10      3.1238  -38.3754   20.4296 H       1  LIG   0.0981   0.1000 
29    C14      2.9380  -39.8900   21.8010 C.3     1  LIG  -0.1181  -0.2000 
30    H11      3.8890  -40.1268   21.3997 H       1  LIG   0.0732   0.1000 
31    H12      3.0430  -39.6129   22.8177 H       1  LIG   0.0789   0.1000 
32    C15      1.6390  -40.0610   21.0880 C.3     1  LIG  -0.1196  -0.2000 
33    H13      0.6832  -39.9283   21.5242 H       1  LIG   0.0807   0.1000 
34    H14      1.5292  -40.4423   20.1061 H       1  LIG   0.0733   0.1000 
@<TRIPOS>BOND
1     2     1     ar
2     3     2     1
3     4     2     ar
4     5     4     1
5     6     4     ar
6     7     6     ar
7     8     7     1
8     9     8     1
9     10    8     1
10    11    10    1
11    12    11    ar
12    13    12    1
13    14    12    ar
14    15    14    1
15    16    14    ar
16    17    16    1
17    18    16    ar
18    19    11    ar
19    19    18    ar
20    20    19    1
21    21    1     ar
22    21    7     ar
23    21    20    1
24    22    6     1
25    23    22    1
26    24    22    1
27    25    22    1
28    26    10    2
29    27    20    1
30    28    27    1
31    29    27    1
32    30    29    1
33    31    29    1
34    32    27    1
35    32    29    1
36    33    32    1
37    34    32    1
@<TRIPOS>SUBSTRUCTURE
1   LIG    1    
 
########## Name        : 1VRT.lig
########## Description : AM1BCC_CHARGES =  -0.0002 ORIGINAL_CHARGES =  -0.0000

@<TRIPOS>MOLECULE
1VRT.lig
34    37    1     0     0    
SMALL
USER_CHARGES
@<TRIPOS>ATOM
1     N1       4.0540  -36.9310   22.2210 N.ar    1  LIG  -0.6650  -0.6200 
2     C1       4.9660  -36.2380   22.9390 C.ar    1  LIG   0.3947   0.1600 
3     H1       6.0082  -36.2811   22.6707 H       1  LIG   0.0281   0.1500 
4     C2       4.6240  -35.4500   24.0360 C.ar    1  LIG  -0.2334  -0.1500 
5     H2       5.3884  -34.9151   24.5740 H       1  LIG   0.1480   0.1500 
6     C3       3.3050  -35.3690   24.4150 C.ar    1  LIG  -0.0698  -0.1435 
7     C4       2.3460  -36.0770   23.6860 C.ar    1  LIG  -0.0398   0.1170 
8     N2       0.9890  -36.0280   24.1030 N.am    1  LIG  -0.4596  -0.5470 
9     H3       0.7643  -35.9928   25.0860 H       1  LIG   0.3311   0.3700 
10    C5      -0.1450  -36.0180   23.4080 C.2     1  LIG   0.7361   0.5438 
11    C6      -0.1190  -36.0770   21.8860 C.ar    1  LIG  -0.2550   0.0862 
12    C7      -1.1230  -35.3990   21.1890 C.ar    1  LIG  -0.0321  -0.1500 
13    H4      -1.7552  -34.6955   21.7041 H       1  LIG   0.1623   0.1500 
14    C8      -1.2960  -35.6300   19.8690 C.ar    1  LIG  -0.2723  -0.1500 
15    H5      -2.0662  -35.1073   19.3273 H       1  LIG   0.1522   0.1500 
16    C9      -0.4670  -36.5450   19.2400 C.ar    1  LIG   0.4373   0.1600 
17    H6      -0.5947  -36.7554   18.1915 H       1  LIG   0.0280   0.1500 
18    N3       0.5220  -37.2120   19.8740 N.ar    1  LIG  -0.6893  -0.6200 
19    C10      0.7040  -36.9790   21.1800 C.ar    1  LIG   0.6480   0.4100 
20    N4       1.7670  -37.6730   21.8260 N.pl3   1  LIG  -0.6924  -0.3690 
21    C11      2.7540  -36.8570   22.5840 C.ar    1  LIG   0.5805   0.4100 
22    C12      2.9040  -34.5090   25.6010 C.3     1  LIG  -0.0620   0.1435 
23    H7       2.2235  -33.7630   25.2820 H       1  LIG   0.0570   0.0000 
24    H8       2.4436  -35.1154   26.3371 H       1  LIG   0.0495   0.0000 
25    H9       3.7654  -34.0491   26.0108 H       1  LIG   0.0519   0.0000 
26    O1      -1.2400  -35.9060   23.9770 O.2     1  LIG  -0.6361  -0.5700 
27    C13      2.3440  -38.7570   21.0360 C.3     1  LIG   0.1354   0.0690 
28    H10      3.1238  -38.3754   20.4296 H       1  LIG   0.0981   0.1000 
29    C14      2.9380  -39.8900   21.8010 C.3     1  LIG  -0.1181  -0.2000 
30    H11      3.8890  -40.1268   21.3997 H       1  LIG   0.0732   0.1000 
31    H12      3.0430  -39.6129   22.8177 H       1  LIG   0.0789   0.1000 
32    C15      1.6390  -40.0610   21.0880 C.3     1  LIG  -0.1196  -0.2000 
33    H13      0.6832  -39.9283   21.5242 H       1  LIG   0.0807   0.1000 
34    H14      1.5292  -40.4423   20.1061 H       1  LIG   0.0733   0.1000 
@<TRIPOS>BOND
1     2     1     ar
2     3     2     1
3     4     2     ar
4     5     4     1
5     6     4     ar
6     7     6     ar
7     8     7     1
8     9     8     1
9     10    8     1
10    11    10    1
11    12    11    ar
12    13    12    1
13    14    12    ar
14    15    14    1
15    16    14    ar
16    17    16    1
17    18    16    ar
18    19    11    ar
19    19    18    ar
20    20    19    1
21    21    1     ar
22    21    7     ar
23    21    20    1
24    22    6     1
25    23    22    1
26    24    22    1
27    25    22    1
28    26    10    2
29    27    20    1
30    28    27    1
31    29    27    1
32    30    29    1
33    31    29    1
34    32    27    1
35    32    29    1
36    33    32    1
37    34    32    1
@<TRIPOS>SUBSTRUCTURE
1   LIG    1    
 
########## Name        : 1VRT.lig
########## Description : AM1BCC_CHARGES =  -0.0002 ORIGINAL_CHARGES =  -0.0000

@<TRIPOS>MOLECULE
1VRT.lig
34    37    1     0     0    
SMALL
USER_CHARGES
@<TRIPOS>ATOM
1     N1       4.0540  -36.9310   22.2210 N.ar    1  LIG  -0.6650  -0.6200 
2     C1       4.9660  -36.2380   22.9390 C.ar    1  LIG   0.3947   0.1600 
3     H1       6.0082  -36.2811   22.6707 H       1  LIG   0.0281   0.1500 
4     C2       4.6240  -35.4500   24.0360 C.ar    1  LIG  -0.2334  -0.1500 
5     H2       5.3884  -34.9151   24.5740 H       1  LIG   0.1480   0.1500 
6     C3       3.3050  -35.3690   24.4150 C.ar    1  LIG  -0.0698  -0.1435 
7     C4       2.3460  -36.0770   23.6860 C.ar    1  LIG  -0.0398   0.1170 
8     N2       0.9890  -36.0280   24.1030 N.am    1  LIG  -0.4596  -0.5470 
9     H3       0.7643  -35.9928   25.0860 H       1  LIG   0.3311   0.3700 
10    C5      -0.1450  -36.0180   23.4080 C.2     1  LIG   0.7361   0.5438 
11    C6      -0.1190  -36.0770   21.8860 C.ar    1  LIG  -0.2550   0.0862 
12    C7      -1.1230  -35.3990   21.1890 C.ar    1  LIG  -0.0321  -0.1500 
13    H4      -1.7552  -34.6955   21.7041 H       1  LIG   0.1623   0.1500 
14    C8      -1.2960  -35.6300   19.8690 C.ar    1  LIG  -0.2723  -0.1500 
15    H5      -2.0662  -35.1073   19.3273 H       1  LIG   0.1522   0.1500 
16    C9      -0.4670  -36.5450   19.2400 C.ar    1  LIG   0.4373   0.1600 
17    H6      -0.5947  -36.7554   18.1915 H       1  LIG   0.0280   0.1500 
18    N3       0.5220  -37.2120   19.8740 N.ar    1  LIG  -0.6893  -0.6200 
19    C10      0.7040  -36.9790   21.1800 C.ar    1  LIG   0.6480   0.4100 
20    N4       1.7670  -37.6730   21.8260 N.pl3   1  LIG  -0.6924  -0.3690 
21    C11      2.7540  -36.8570   22.5840 C.ar    1  LIG   0.5805   0.4100 
22    C12      2.9040  -34.5090   25.6010 C.3     1  LIG  -0.0620   0.1435 
23    H7       2.2235  -33.7630   25.2820 H       1  LIG   0.0570   0.0000 
24    H8       2.4436  -35.1154   26.3371 H       1  LIG   0.0495   0.0000 
25    H9       3.7654  -34.0491   26.0108 H       1  LIG   0.0519   0.0000 
26    O1      -1.2400  -35.9060   23.9770 O.2     1  LIG  -0.6361  -0.5700 
27    C13      2.3440  -38.7570   21.0360 C.3     1  LIG   0.1354   0.0690 
28    H10      3.1238  -38.3754   20.4296 H       1  LIG   0.0981   0.1000 
29    C14      2.9380  -39.8900   21.8010 C.3     1  LIG  -0.1181  -0.2000 
30    H11      3.8890  -40.1268   21.3997 H       1  LIG   0.0732   0.1000 
31    H12      3.0430  -39.6129   22.8177 H       1  LIG   0.0789   0.1000 
32    C15      1.6390  -40.0610   21.0880 C.3     1  LIG  -0.1196  -0.2000 
33    H13      0.6832  -39.9283   21.5242 H       1  LIG   0.0807   0.1000 
34    H14      1.5292  -40.4423   20.1061 H       1  LIG   0.0733   0.1000 
@<TRIPOS>BOND
1     2     1     ar
2     3     2     1
3     4     2     ar
4     5     4     1
5     6     4     ar
6     7     6     ar
7     8     7     1
8     9     8     1
9     10    8     1
10    11    10    1
11    12    11    ar
12    13    12    1
13    14    12    ar
14    15    14    1
15    16    14    ar
16    17    16    1
17    18    16    ar
18    19    11    ar
19    19    18    ar
20    20    19    1
21    21    1     ar
22    21    7     ar
23    21    20    1
24    22    6     1
25    23    22    1
26    24    22    1
27    25    22    1
28    26    10    2
29    27    20    1
30    28    27    1
31    29    27    1
32    30    29    1
33    31    29    1
34    32    27    1
35    32    29    1
36    33    32    1
37    34    32    1
@<TRIPOS>SUBSTRUCTURE
1   LIG    1    
 
########## Name        : 1VRT.lig
########## Description : AM1BCC_CHARGES =  -0.0002 ORIGINAL_CHARGES =  -0.0000

@<TRIPOS>MOLECULE
1VRT.lig
34    37    1     0     0    
SMALL
USER_CHARGES
@<TRIPOS>ATOM
1     N1       4.0540  -36.9310   22.2210 N.ar    1  LIG  -0.6650  -0.6200 
2     C1       4.9660  -36.2380   22.9390 C.ar    1  LIG   0.3947   0.1600 
3     H1       6.0082  -36.2811   22.6707 H       1  LIG   0.0281   0.1500 
4     C2       4.6240  -35.4500   24.0360 C.ar    1  LIG  -0.2334  -0.1500 
5     H2       5.3884  -34.9151   24.5740 H       1  LIG   0.1480   0.1500 
6     C3       3.3050  -35.3690   24.4150 C.ar    1  LIG  -0.0698  -0.1435 
7     C4       2.3460  -36.0770   23.6860 C.ar    1  LIG  -0.0398   0.1170 
8     N2       0.9890  -36.0280   24.1030 N.am    1  LIG  -0.4596  -0.5470 
9     H3       0.7643  -35.9928   25.0860 H       1  LIG   0.3311   0.3700 
10    C5      -0.1450  -36.0180   23.4080 C.2     1  LIG   0.7361   0.5438 
11    C6      -0.1190  -36.0770   21.8860 C.ar    1  LIG  -0.2550   0.0862 
12    C7      -1.1230  -35.3990   21.1890 C.ar    1  LIG  -0.0321  -0.1500 
13    H4      -1.7552  -34.6955   21.7041 H       1  LIG   0.1623   0.1500 
14    C8      -1.2960  -35.6300   19.8690 C.ar    1  LIG  -0.2723  -0.1500 
15    H5      -2.0662  -35.1073   19.3273 H       1  LIG   0.1522   0.1500 
16    C9      -0.4670  -36.5450   19.2400 C.ar    1  LIG   0.4373   0.1600 
17    H6      -0.5947  -36.7554   18.1915 H       1  LIG   0.0280   0.1500 
18    N3       0.5220  -37.2120   19.8740 N.ar    1  LIG  -0.6893  -0.6200 
19    C10      0.7040  -36.9790   21.1800 C.ar    1  LIG   0.6480   0.4100 
20    N4       1.7670  -37.6730   21.8260 N.pl3   1  LIG  -0.6924  -0.3690 
21    C11      2.7540  -36.8570   22.5840 C.ar    1  LIG   0.5805   0.4100 
22    C12      2.9040  -34.5090   25.6010 C.3     1  LIG  -0.0620   0.1435 
23    H7       2.2235  -33.7630   25.2820 H       1  LIG   0.0570   0.0000 
24    H8       2.4436  -35.1154   26.3371 H       1  LIG   0.0495   0.0000 
25    H9       3.7654  -34.0491   26.0108 H       1  LIG   0.0519   0.0000 
26    O1      -1.2400  -35.9060   23.9770 O.2     1  LIG  -0.6361  -0.5700 
27    C13      2.3440  -38.7570   21.0360 C.3     1  LIG   0.1354   0.0690 
28    H10      3.1238  -38.3754   20.4296 H       1  LIG   0.0981   0.1000 
29    C14      2.9380  -39.8900   21.8010 C.3     1  LIG  -0.1181  -0.2000 
30    H11      3.8890  -40.1268   21.3997 H       1  LIG   0.0732   0.1000 
31    H12      3.0430  -39.6129   22.8177 H       1  LIG   0.0789   0.1000 
32    C15      1.6390  -40.0610   21.0880 C.3     1  LIG  -0.1196  -0.2000 
33    H13      0.6832  -39.9283   21.5242 H       1  LIG   0.0807   0.1000 
34    H14      1.5292  -40.4423   20.1061 H       1  LIG   0.0733   0.1000 
@<TRIPOS>BOND
1     2     1     ar
2     3     2     1
3     4     2     ar
4     5     4     1
5     6     4     ar
6     7     6     ar
7     8     7     1
8     9     8     1
9     10    8     1
10    11    10    1
11    12    11    ar
12    13    12    1
13    14    12    ar
14    15    14    1
15    16    14    ar
16    17    16    1
17    18    16    ar
18    19    11    ar
19    19    18    ar
20    20    19    1
21    21    1     ar
22    21    7     ar
23    21    20    1
24    22    6     1
25    23    22    1
26    24    22    1
27    25    22    1
28    26    10    2
29    27    20    1
30    28    27    1
31    29    27    1
32    30    29    1
33    31    29    1
34    32    27    1
35    32    29    1
36    33    32    1
37    34    32    1
@<TRIPOS>SUBSTRUCTURE
1   LIG    1    
 
########## Name        : 1VRT.lig
########## Description : AM1BCC_CHARGES =  -0.0002 ORIGINAL_CHARGES =  -0.0000

@<TRIPOS>MOLECULE
1VRT.lig
34    37    1     0     0    
SMALL
USER_CHARGES
@<TRIPOS>ATOM
1     N1       4.0540  -36.9310   22.2210 N.ar    1  LIG  -0.6650  -0.6200 
2     C1       4.9660  -36.2380   22.9390 C.ar    1  LIG   0.3947   0.1600 
3     H1       6.0082  -36.2811   22.6707 H       1  LIG   0.0281   0.1500 
4     C2       4.6240  -35.4500   24.0360 C.ar    1  LIG  -0.2334  -0.1500 
5     H2       5.3884  -34.9151   24.5740 H       1  LIG   0.1480   0.1500 
6     C3       3.3050  -35.3690   24.4150 C.ar    1  LIG  -0.0698  -0.1435 
7     C4       2.3460  -36.0770   23.6860 C.ar    1  LIG  -0.0398   0.1170 
8     N2       0.9890  -36.0280   24.1030 N.am    1  LIG  -0.4596  -0.5470 
9     H3       0.7643  -35.9928   25.0860 H       1  LIG   0.3311   0.3700 
10    C5      -0.1450  -36.0180   23.4080 C.2     1  LIG   0.7361   0.5438 
11    C6      -0.1190  -36.0770   21.8860 C.ar    1  LIG  -0.2550   0.0862 
12    C7      -1.1230  -35.3990   21.1890 C.ar    1  LIG  -0.0321  -0.1500 
13    H4      -1.7552  -34.6955   21.7041 H       1  LIG   0.1623   0.1500 
14    C8      -1.2960  -35.6300   19.8690 C.ar    1  LIG  -0.2723  -0.1500 
15    H5      -2.0662  -35.1073   19.3273 H       1  LIG   0.1522   0.1500 
16    C9      -0.4670  -36.5450   19.2400 C.ar    1  LIG   0.4373   0.1600 
17    H6      -0.5947  -36.7554   18.1915 H       1  LIG   0.0280   0.1500 
18    N3       0.5220  -37.2120   19.8740 N.ar    1  LIG  -0.6893  -0.6200 
19    C10      0.7040  -36.9790   21.1800 C.ar    1  LIG   0.6480   0.4100 
20    N4       1.7670  -37.6730   21.8260 N.pl3   1  LIG  -0.6924  -0.3690 
21    C11      2.7540  -36.8570   22.5840 C.ar    1  LIG   0.5805   0.4100 
22    C12      2.9040  -34.5090   25.6010 C.3     1  LIG  -0.0620   0.1435 
23    H7       2.2235  -33.7630   25.2820 H       1  LIG   0.0570   0.0000 
24    H8       2.4436  -35.1154   26.3371 H       1  LIG   0.0495   0.0000 
25    H9       3.7654  -34.0491   26.0108 H       1  LIG   0.0519   0.0000 
26    O1      -1.2400  -35.9060   23.9770 O.2     1  LIG  -0.6361  -0.5700 
27    C13      2.3440  -38.7570   21.0360 C.3     1  LIG   0.1354   0.0690 
28    H10      3.1238  -38.3754   20.4296 H       1  LIG   0.0981   0.1000 
29    C14      2.9380  -39.8900   21.8010 C.3     1  LIG  -0.1181  -0.2000 
30    H11      3.8890  -40.1268   21.3997 H       1  LIG   0.0732   0.1000 
31    H12      3.0430  -39.6129   22.8177 H       1  LIG   0.0789   0.1000 
32    C15      1.6390  -40.0610   21.0880 C.3     1  LIG  -0.1196  -0.2000 
33    H13      0.6832  -39.9283   21.5242 H       1  LIG   0.0807   0.1000 
34    H14      1.5292  -40.4423   20.1061 H       1  LIG   0.0733   0.1000 
@<TRIPOS>BOND
1     2     1     ar
2     3     2     1
3     4     2     ar
4     5     4     1
5     6     4     ar
6     7     6     ar
7     8     7     1
8     9     8     1
9     10    8     1
10    11    10    1
11    12    11    ar
12    13    12    1
13    14    12    ar
14    15    14    1
15    16    14    ar
16    17    16    1
17    18    16    ar
18    19    11    ar
19    19    18    ar
20    20    19    1
21    21    1     ar
22    21    7     ar
23    21    20    1
24    22    6     1
25    23    22    1
26    24    22    1
27    25    22    1
28    26    10    2
29    27    20    1
30    28    27    1
31    29    27    1
32    30    29    1
33    31    29    1
34    32    27    1
35    32    29    1
36    33    32    1
37    34    32    1
@<TRIPOS>SUBSTRUCTURE
1   LIG    1    
 
########## Name        : 1VRT.lig
########## Description : AM1BCC_CHARGES =  -0.0002 ORIGINAL_CHARGES =  -0.0000

@<TRIPOS>MOLECULE
1VRT.lig
34    37    1     0     0    
SMALL
USER_CHARGES
@<TRIPOS>ATOM
1     N1       4.0540  -36.9310   22.2210 N.ar    1  LIG  -0.6650  -0.6200 
2     C1       4.9660  -36.2380   22.9390 C.ar    1  LIG   0.3947   0.1600 
3     H1       6.0082  -36.2811   22.6707 H       1  LIG   0.0281   0.1500 
4     C2       4.6240  -35.4500   24.0360 C.ar    1  LIG  -0.2334  -0.1500 
5     H2       5.3884  -34.9151   24.5740 H       1  LIG   0.1480   0.1500 
6     C3       3.3050  -35.3690   24.4150 C.ar    1  LIG  -0.0698  -0.1435 
7     C4       2.3460  -36.0770   23.6860 C.ar    1  LIG  -0.0398   0.1170 
8     N2       0.9890  -36.0280   24.1030 N.am    1  LIG  -0.4596  -0.5470 
9     H3       0.7643  -35.9928   25.0860 H       1  LIG   0.3311   0.3700 
10    C5      -0.1450  -36.0180   23.4080 C.2     1  LIG   0.7361   0.5438 
11    C6      -0.1190  -36.0770   21.8860 C.ar    1  LIG  -0.2550   0.0862 
12    C7      -1.1230  -35.3990   21.1890 C.ar    1  LIG  -0.0321  -0.1500 
13    H4      -1.7552  -34.6955   21.7041 H       1  LIG   0.1623   0.1500 
14    C8      -1.2960  -35.6300   19.8690 C.ar    1  LIG  -0.2723  -0.1500 
15    H5      -2.0662  -35.1073   19.3273 H       1  LIG   0.1522   0.1500 
16    C9      -0.4670  -36.5450   19.2400 C.ar    1  LIG   0.4373   0.1600 
17    H6      -0.5947  -36.7554   18.1915 H       1  LIG   0.0280   0.1500 
18    N3       0.5220  -37.2120   19.8740 N.ar    1  LIG  -0.6893  -0.6200 
19    C10      0.7040  -36.9790   21.1800 C.ar    1  LIG   0.6480   0.4100 
20    N4       1.7670  -37.6730   21.8260 N.pl3   1  LIG  -0.6924  -0.3690 
21    C11      2.7540  -36.8570   22.5840 C.ar    1  LIG   0.5805   0.4100 
22    C12      2.9040  -34.5090   25.6010 C.3     1  LIG  -0.0620   0.1435 
23    H7       2.2235  -33.7630   25.2820 H       1  LIG   0.0570   0.0000 
24    H8       2.4436  -35.1154   26.3371 H       1  LIG   0.0495   0.0000 
25    H9       3.7654  -34.0491   26.0108 H       1  LIG   0.0519   0.0000 
26    O1      -1.2400  -35.9060   23.9770 O.2     1  LIG  -0.6361  -0.5700 
27    C13      2.3440  -38.7570   21.0360 C.3     1  LIG   0.1354   0.0690 
28    H10      3.1238  -38.3754   20.4296 H       1  LIG   0.0981   0.1000 
29    C14      2.9380  -39.8900   21.8010 C.3     1  LIG  -0.1181  -0.2000 
30    H11      3.8890  -40.1268   21.3997 H       1  LIG   0.0732   0.1000 
31    H12      3.0430  -39.6129   22.8177 H       1  LIG   0.0789   0.1000 
32    C15      1.6390  -40.0610   21.0880 C.3     1  LIG  -0.1196  -0.2000 
33    H13      0.6832  -39.9283   21.5242 H       1  LIG   0.0807   0.1000 
34    H14      1.5292  -40.4423   20.1061 H       1  LIG   0.0733   0.1000 
@<TRIPOS>BOND
1     2     1     ar
2     3     2     1
3     4     2     ar
4     5     4     1
5     6     4     ar
6     7     6     ar
7     8     7     1
8     9     8     1
9     10    8     1
10    11    10    1
11    12    11    ar
12    13    12    1
13    14    12    ar
14    15    14    1
15    16    14    ar
16    17    16    1
17    18    16    ar
18    19    11    ar
19    19    18    ar
20    20    19    1
21    21    1     ar
22    21    7     ar
23    21    20    1
24    22    6     1
25    23    22    1
26    24    22    1
27    25    22    1
28    26    10    2
29    27    20    1
30    28    27    1
31    29    27    1
32    30    29    1
33    31    29    1
34    32    27    1
35    32    29    1
36    33    32    1
37    34    32    1
@<TRIPOS>SUBSTRUCTURE
1   LIG    1    
 
########## Name        : 1VRT.lig
########## Description : AM1BCC_CHARGES =  -0.0002 ORIGINAL_CHARGES =  -0.0000

@<TRIPOS>MOLECULE
1VRT.lig
34    37    1     0     0    
SMALL
USER_CHARGES
@<TRIPOS>ATOM
1     N1       4.0540  -36.9310   22.2210 N.ar    1  LIG  -0.6650  -0.6200 
2     C1       4.9660  -36.2380   22.9390 C.ar    1  LIG   0.3947   0.1600 
3     H1       6.0082  -36.2811   22.6707 H       1  LIG   0.0281   0.1500 
4     C2       4.6240  -35.4500   24.0360 C.ar    1  LIG  -0.2334  -0.1500 
5     H2       5.3884  -34.9151   24.5740 H       1  LIG   0.1480   0.1500 
6     C3       3.3050  -35.3690   24.4150 C.ar    1  LIG  -0.0698  -0.1435 
7     C4       2.3460  -36.0770   23.6860 C.ar    1  LIG  -0.0398   0.1170 
8     N2       0.9890  -36.0280   24.1030 N.am    1  LIG  -0.4596  -0.5470 
9     H3       0.7643  -35.9928   25.0860 H       1  LIG   0.3311   0.3700 
10    C5      -0.1450  -36.0180   23.4080 C.2     1  LIG   0.7361   0.5438 
11    C6      -0.1190  -36.0770   21.8860 C.ar    1  LIG  -0.2550   0.0862 
12    C7      -1.1230  -35.3990   21.1890 C.ar    1  LIG  -0.0321  -0.1500 
13    H4      -1.7552  -34.6955   21.7041 H       1  LIG   0.1623   0.1500 
14    C8      -1.2960  -35.6300   19.8690 C.ar    1  LIG  -0.2723  -0.1500 
15    H5      -2.0662  -35.1073   19.3273 H       1  LIG   0.1522   0.1500 
16    C9      -0.4670  -36.5450   19.2400 C.ar    1  LIG   0.4373   0.1600 
17    H6      -0.5947  -36.7554   18.1915 H       1  LIG   0.0280   0.1500 
18    N3       0.5220  -37.2120   19.8740 N.ar    1  LIG  -0.6893  -0.6200 
19    C10      0.7040  -36.9790   21.1800 C.ar    1  LIG   0.6480   0.4100 
20    N4       1.7670  -37.6730   21.8260 N.pl3   1  LIG  -0.6924  -0.3690 
21    C11      2.7540  -36.8570   22.5840 C.ar    1  LIG   0.5805   0.4100 
22    C12      2.9040  -34.5090   25.6010 C.3     1  LIG  -0.0620   0.1435 
23    H7       2.2235  -33.7630   25.2820 H       1  LIG   0.0570   0.0000 
24    H8       2.4436  -35.1154   26.3371 H       1  LIG   0.0495   0.0000 
25    H9       3.7654  -34.0491   26.0108 H       1  LIG   0.0519   0.0000 
26    O1      -1.2400  -35.9060   23.9770 O.2     1  LIG  -0.6361  -0.5700 
27    C13      2.3440  -38.7570   21.0360 C.3     1  LIG   0.1354   0.0690 
28    H10      3.1238  -38.3754   20.4296 H       1  LIG   0.0981   0.1000 
29    C14      2.9380  -39.8900   21.8010 C.3     1  LIG  -0.1181  -0.2000 
30    H11      3.8890  -40.1268   21.3997 H       1  LIG   0.0732   0.1000 
31    H12      3.0430  -39.6129   22.8177 H       1  LIG   0.0789   0.1000 
32    C15      1.6390  -40.0610   21.0880 C.3     1  LIG  -0.1196  -0.2000 
33    H13      0.6832  -39.9283   21.5242 H       1  LIG   0.0807   0.1000 
34    H14      1.5292  -40.4423   20.1061 H       1  LIG   0.0733   0.1000 
@<TRIPOS>BOND
1     2     1     ar
2     3     2     1
3     4     2     ar
4     5     4     1
5     6     4     ar
6     7     6     ar
7     8     7     1
8     9     8     1
9     10    8     1
10    11    10    1
11    12    11    ar
12    13    12    1
13    14    12    ar
14    15    14    1
15    16    14    ar
16    17    16    1
17    18    16    ar
18    19    11    ar
19    19    18    ar
20    20    19    1
21    21    1     ar
22    21    7     ar
23    21    20    1
24    22    6     1
25    23    22    1
26    24    22    1
27    25    22    1
28    26    10    2
29    27    20    1
30    28    27    1
31    29    27    1
32    30    29    1
33    31    29    1
34    32    27    1
35    32    29    1
36    33    32    1
37    34    32    1
@<TRIPOS>SUBSTRUCTURE
1   LIG    1    
 
########## Name        : 1VRT.lig
########## Description : AM1BCC_CHARGES =  -0.0002 ORIGINAL_CHARGES =  -0.0000

@<TRIPOS>MOLECULE
1VRT.lig
34    37    1     0     0    
SMALL
USER_CHARGES
@<TRIPOS>ATOM
1     N1       4.0540  -36.9310   22.2210 N.ar    1  LIG  -0.6650  -0.6200 
2     C1       4.9660  -36.2380   22.9390 C.ar    1  LIG   0.3947   0.1600 
3     H1       6.0082  -36.2811   22.6707 H       1  LIG   0.0281   0.1500 
4     C2       4.6240  -35.4500   24.0360 C.ar    1  LIG  -0.2334  -0.1500 
5     H2       5.3884  -34.9151   24.5740 H       1  LIG   0.1480   0.1500 
6     C3       3.3050  -35.3690   24.4150 C.ar    1  LIG  -0.0698  -0.1435 
7     C4       2.3460  -36.0770   23.6860 C.ar    1  LIG  -0.0398   0.1170 
8     N2       0.9890  -36.0280   24.1030 N.am    1  LIG  -0.4596  -0.5470 
9     H3       0.7643  -35.9928   25.0860 H       1  LIG   0.3311   0.3700 
10    C5      -0.1450  -36.0180   23.4080 C.2     1  LIG   0.7361   0.5438 
11    C6      -0.1190  -36.0770   21.8860 C.ar    1  LIG  -0.2550   0.0862 
12    C7      -1.1230  -35.3990   21.1890 C.ar    1  LIG  -0.0321  -0.1500 
13    H4      -1.7552  -34.6955   21.7041 H       1  LIG   0.1623   0.1500 
14    C8      -1.2960  -35.6300   19.8690 C.ar    1  LIG  -0.2723  -0.1500 
15    H5      -2.0662  -35.1073   19.3273 H       1  LIG   0.1522   0.1500 
16    C9      -0.4670  -36.5450   19.2400 C.ar    1  LIG   0.4373   0.1600 
17    H6      -0.5947  -36.7554   18.1915 H       1  LIG   0.0280   0.1500 
18    N3       0.5220  -37.2120   19.8740 N.ar    1  LIG  -0.6893  -0.6200 
19    C10      0.7040  -36.9790   21.1800 C.ar    1  LIG   0.6480   0.4100 
20    N4       1.7670  -37.6730   21.8260 N.pl3   1  LIG  -0.6924  -0.3690 
21    C11      2.7540  -36.8570   22.5840 C.ar    1  LIG   0.5805   0.4100 
22    C12      2.9040  -34.5090   25.6010 C.3     1  LIG  -0.0620   0.1435 
23    H7       2.2235  -33.7630   25.2820 H       1  LIG   0.0570   0.0000 
24    H8       2.4436  -35.1154   26.3371 H       1  LIG   0.0495   0.0000 
25    H9       3.7654  -34.0491   26.0108 H       1  LIG   0.0519   0.0000 
26    O1      -1.2400  -35.9060   23.9770 O.2     1  LIG  -0.6361  -0.5700 
27    C13      2.3440  -38.7570   21.0360 C.3     1  LIG   0.1354   0.0690 
28    H10      3.1238  -38.3754   20.4296 H       1  LIG   0.0981   0.1000 
29    C14      2.9380  -39.8900   21.8010 C.3     1  LIG  -0.1181  -0.2000 
30    H11      3.8890  -40.1268   21.3997 H       1  LIG   0.0732   0.1000 
31    H12      3.0430  -39.6129   22.8177 H       1  LIG   0.0789   0.1000 
32    C15      1.6390  -40.0610   21.0880 C.3     1  LIG  -0.1196  -0.2000 
33    H13      0.6832  -39.9283   21.5242 H       1  LIG   0.0807   0.1000 
34    H14      1.5292  -40.4423   20.1061 H       1  LIG   0.0733   0.1000 
@<TRIPOS>BOND
1     2     1     ar
2     3     2     1
3     4     2     ar
4     5     4     1
5     6     4     ar
6     7     6     ar
7     8     7     1
8     9     8     1
9     10    8     1
10    11    10    1
11    12    11    ar
12    13    12    1
13    14    12    ar
14    15    14    1
15    16    14    ar
16    17    16    1
17    18    16    ar
18    19    11    ar
19    19    18    ar
20    20    19    1
21    21    1     ar
22    21    7     ar
23    21    20    1
24    22    6     1
25    23    22    1
26    24    22    1
27    25    22    1
28    26    10    2
29    27    20    1
30    28    27    1
31    29    27    1
32    30    29    1
33    31    29    1
34    32    27    1
35    32    29    1
36    33    32    1
37    34    32    1
@<TRIPOS>SUBSTRUCTURE
1   LIG    1    
 
########## Name        : 1VRT.lig
########## Description : AM1BCC_CHARGES =  -0.0002 ORIGINAL_CHARGES =  -0.0000

@<TRIPOS>MOLECULE
1VRT.lig
34    37    1     0     0    
SMALL
USER_CHARGES
@<TRIPOS>ATOM
1     N1       4.0540  -36.9310   22.2210 N.ar    1  LIG  -0.6650  -0.6200 
2     C1       4.9660  -36.2380   22.9390 C.ar    1  LIG   0.3947   0.1600 
3     H1       6.0082  -36.2811   22.6707 H       1  LIG   0.0281   0.1500 
4     C2       4.6240  -35.4500   24.0360 C.ar    1  LIG  -0.2334  -0.1500 
5     H2       5.3884  -34.9151   24.5740 H       1  LIG   0.1480   0.1500 
6     C3       3.3050  -35.3690   24.4150 C.ar    1  LIG  -0.0698  -0.1435 
7     C4       2.3460  -36.0770   23.6860 C.ar    1  LIG  -0.0398   0.1170 
8     N2       0.9890  -36.0280   24.1030 N.am    1  LIG  -0.4596  -0.5470 
9     H3       0.7643  -35.9928   25.0860 H       1  LIG   0.3311   0.3700 
10    C5      -0.1450  -36.0180   23.4080 C.2     1  LIG   0.7361   0.5438 
11    C6      -0.1190  -36.0770   21.8860 C.ar    1  LIG  -0.2550   0.0862 
12    C7      -1.1230  -35.3990   21.1890 C.ar    1  LIG  -0.0321  -0.1500 
13    H4      -1.7552  -34.6955   21.7041 H       1  LIG   0.1623   0.1500 
14    C8      -1.2960  -35.6300   19.8690 C.ar    1  LIG  -0.2723  -0.1500 
15    H5      -2.0662  -35.1073   19.3273 H       1  LIG   0.1522   0.1500 
16    C9      -0.4670  -36.5450   19.2400 C.ar    1  LIG   0.4373   0.1600 
17    H6      -0.5947  -36.7554   18.1915 H       1  LIG   0.0280   0.1500 
18    N3       0.5220  -37.2120   19.8740 N.ar    1  LIG  -0.6893  -0.6200 
19    C10      0.7040  -36.9790   21.1800 C.ar    1  LIG   0.6480   0.4100 
20    N4       1.7670  -37.6730   21.8260 N.pl3   1  LIG  -0.6924  -0.3690 
21    C11      2.7540  -36.8570   22.5840 C.ar    1  LIG   0.5805   0.4100 
22    C12      2.9040  -34.5090   25.6010 C.3     1  LIG  -0.0620   0.1435 
23    H7       2.2235  -33.7630   25.2820 H       1  LIG   0.0570   0.0000 
24    H8       2.4436  -35.1154   26.3371 H       1  LIG   0.0495   0.0000 
25    H9       3.7654  -34.0491   26.0108 H       1  LIG   0.0519   0.0000 
26    O1      -1.2400  -35.9060   23.9770 O.2     1  LIG  -0.6361  -0.5700 
27    C13      2.3440  -38.7570   21.0360 C.3     1  LIG   0.1354   0.0690 
28    H10      3.1238  -38.3754   20.4296 H       1  LIG   0.0981   0.1000 
29    C14      2.9380  -39.8900   21.8010 C.3     1  LIG  -0.1181  -0.2000 
30    H11      3.8890  -40.1268   21.3997 H       1  LIG   0.0732   0.1000 
31    H12      3.0430  -39.6129   22.8177 H       1  LIG   0.0789   0.1000 
32    C15      1.6390  -40.0610   21.0880 C.3     1  LIG  -0.1196  -0.2000 
33    H13      0.6832  -39.9283   21.5242 H       1  LIG   0.0807   0.1000 
34    H14      1.5292  -40.4423   20.1061 H       1  LIG   0.0733   0.1000 
@<TRIPOS>BOND
1     2     1     ar
2     3     2     1
3     4     2     ar
4     5     4     1
5     6     4     ar
6     7     6     ar
7     8     7     1
8     9     8     1
9     10    8     1
10    11    10    1
11    12    11    ar
12    13    12    1
13    14    12    ar
14    15    14    1
15    16    14    ar
16    17    16    1
17    18    16    ar
18    19    11    ar
19    19    18    ar
20    20    19    1
21    21    1     ar
22    21    7     ar
23    21    20    1
24    22    6     1
25    23    22    1
26    24    22    1
27    25    22    1
28    26    10    2
29    27    20    1
30    28    27    1
31    29    27    1
32    30    29    1
33    31    29    1
34    32    27    1
35    32    29    1
36    33    32    1
37    34    32    1
@<TRIPOS>SUBSTRUCTURE
1   LIG    1    
 
########## Name        : 1VRT.lig
########## Description : AM1BCC_CHARGES =  -0.0002 ORIGINAL_CHARGES =  -0.0000

@<TRIPOS>MOLECULE
1VRT.lig
34    37    1     0     0    
SMALL
USER_CHARGES
@<TRIPOS>ATOM
1     N1       4.0540  -36.9310   22.2210 N.ar    1  LIG  -0.6650  -0.6200 
2     C1       4.9660  -36.2380   22.9390 C.ar    1  LIG   0.3947   0.1600 
3     H1       6.0082  -36.2811   22.6707 H       1  LIG   0.0281   0.1500 
4     C2       4.6240  -35.4500   24.0360 C.ar    1  LIG  -0.2334  -0.1500 
5     H2       5.3884  -34.9151   24.5740 H       1  LIG   0.1480   0.1500 
6     C3       3.3050  -35.3690   24.4150 C.ar    1  LIG  -0.0698  -0.1435 
7     C4       2.3460  -36.0770   23.6860 C.ar    1  LIG  -0.0398   0.1170 
8     N2       0.9890  -36.0280   24.1030 N.am    1  LIG  -0.4596  -0.5470 
9     H3       0.7643  -35.9928   25.0860 H       1  LIG   0.3311   0.3700 
10    C5      -0.1450  -36.0180   23.4080 C.2     1  LIG   0.7361   0.5438 
11    C6      -0.1190  -36.0770   21.8860 C.ar    1  LIG  -0.2550   0.0862 
12    C7      -1.1230  -35.3990   21.1890 C.ar    1  LIG  -0.0321  -0.1500 
13    H4      -1.7552  -34.6955   21.7041 H       1  LIG   0.1623   0.1500 
14    C8      -1.2960  -35.6300   19.8690 C.ar    1  LIG  -0.2723  -0.1500 
15    H5      -2.0662  -35.1073   19.3273 H       1  LIG   0.1522   0.1500 
16    C9      -0.4670  -36.5450   19.2400 C.ar    1  LIG   0.4373   0.1600 
17    H6      -0.5947  -36.7554   18.1915 H       1  LIG   0.0280   0.1500 
18    N3       0.5220  -37.2120   19.8740 N.ar    1  LIG  -0.6893  -0.6200 
19    C10      0.7040  -36.9790   21.1800 C.ar    1  LIG   0.6480   0.4100 
20    N4       1.7670  -37.6730   21.8260 N.pl3   1  LIG  -0.6924  -0.3690 
21    C11      2.7540  -36.8570   22.5840 C.ar    1  LIG   0.5805   0.4100 
22    C12      2.9040  -34.5090   25.6010 C.3     1  LIG  -0.0620   0.1435 
23    H7       2.2235  -33.7630   25.2820 H       1  LIG   0.0570   0.0000 
24    H8       2.4436  -35.1154   26.3371 H       1  LIG   0.0495   0.0000 
25    H9       3.7654  -34.0491   26.0108 H       1  LIG   0.0519   0.0000 
26    O1      -1.2400  -35.9060   23.9770 O.2     1  LIG  -0.6361  -0.5700 
27    C13      2.3440  -38.7570   21.0360 C.3     1  LIG   0.1354   0.0690 
28    H10      3.1238  -38.3754   20.4296 H       1  LIG   0.0981   0.1000 
29    C14      2.9380  -39.8900   21.8010 C.3     1  LIG  -0.1181  -0.2000 
30    H11      3.8890  -40.1268   21.3997 H       1  LIG   0.0732   0.1000 
31    H12      3.0430  -39.6129   22.8177 H       1  LIG   0.0789   0.1000 
32    C15      1.6390  -40.0610   21.0880 C.3     1  LIG  -0.1196  -0.2000 
33    H13      0.6832  -39.9283   21.5242 H       1  LIG   0.0807   0.1000 
34    H14      1.5292  -40.4423   20.1061 H       1  LIG   0.0733   0.1000 
@<TRIPOS>BOND
1     2     1     ar
2     3     2     1
3     4     2     ar
4     5     4     1
5     6     4     ar
6     7     6     ar
7     8     7     1
8     9     8     1
9     10    8     1
10    11    10    1
11    12    11    ar
12    13    12    1
13    14    12    ar
14    15    14    1
15    16    14    ar
16    17    16    1
17    18    16    ar
18    19    11    ar
19    19    18    ar
20    20    19    1
21    21    1     ar
22    21    7     ar
23    21    20    1
24    22    6     1
25    23    22    1
26    24    22    1
27    25    22    1
28    26    10    2
29    27    20    1
30    28    27    1
31    29    27    1
32    30    29    1
33    31    29    1
34    32    27    1
35    32    29    1
36    33    32    1
37    34    32    1
@<TRIPOS>SUBSTRUCTURE
1   LIG    1    
 
########## Name        : 1VRT.lig
########## Description : AM1BCC_CHARGES =  -0.0002 ORIGINAL_CHARGES =  -0.0000

@<TRIPOS>MOLECULE
1VRT.lig
34    37    1     0     0    
SMALL
USER_CHARGES
@<TRIPOS>ATOM
1     N1       4.0540  -36.9310   22.2210 N.ar    1  LIG  -0.6650  -0.6200 
2     C1       4.9660  -36.2380   22.9390 C.ar    1  LIG   0.3947   0.1600 
3     H1       6.0082  -36.2811   22.6707 H       1  LIG   0.0281   0.1500 
4     C2       4.6240  -35.4500   24.0360 C.ar    1  LIG  -0.2334  -0.1500 
5     H2       5.3884  -34.9151   24.5740 H       1  LIG   0.1480   0.1500 
6     C3       3.3050  -35.3690   24.4150 C.ar    1  LIG  -0.0698  -0.1435 
7     C4       2.3460  -36.0770   23.6860 C.ar    1  LIG  -0.0398   0.1170 
8     N2       0.9890  -36.0280   24.1030 N.am    1  LIG  -0.4596  -0.5470 
9     H3       0.7643  -35.9928   25.0860 H       1  LIG   0.3311   0.3700 
10    C5      -0.1450  -36.0180   23.4080 C.2     1  LIG   0.7361   0.5438 
11    C6      -0.1190  -36.0770   21.8860 C.ar    1  LIG  -0.2550   0.0862 
12    C7      -1.1230  -35.3990   21.1890 C.ar    1  LIG  -0.0321  -0.1500 
13    H4      -1.7552  -34.6955   21.7041 H       1  LIG   0.1623   0.1500 
14    C8      -1.2960  -35.6300   19.8690 C.ar    1  LIG  -0.2723  -0.1500 
15    H5      -2.0662  -35.1073   19.3273 H       1  LIG   0.1522   0.1500 
16    C9      -0.4670  -36.5450   19.2400 C.ar    1  LIG   0.4373   0.1600 
17    H6      -0.5947  -36.7554   18.1915 H       1  LIG   0.0280   0.1500 
18    N3       0.5220  -37.2120   19.8740 N.ar    1  LIG  -0.6893  -0.6200 
19    C10      0.7040  -36.9790   21.1800 C.ar    1  LIG   0.6480   0.4100 
20    N4       1.7670  -37.6730   21.8260 N.pl3   1  LIG  -0.6924  -0.3690 
21    C11      2.7540  -36.8570   22.5840 C.ar    1  LIG   0.5805   0.4100 
22    C12      2.9040  -34.5090   25.6010 C.3     1  LIG  -0.0620   0.1435 
23    H7       2.2235  -33.7630   25.2820 H       1  LIG   0.0570   0.0000 
24    H8       2.4436  -35.1154   26.3371 H       1  LIG   0.0495   0.0000 
25    H9       3.7654  -34.0491   26.0108 H       1  LIG   0.0519   0.0000 
26    O1      -1.2400  -35.9060   23.9770 O.2     1  LIG  -0.6361  -0.5700 
27    C13      2.3440  -38.7570   21.0360 C.3     1  LIG   0.1354   0.0690 
28    H10      3.1238  -38.3754   20.4296 H       1  LIG   0.0981   0.1000 
29    C14      2.9380  -39.8900   21.8010 C.3     1  LIG  -0.1181  -0.2000 
30    H11      3.8890  -40.1268   21.3997 H       1  LIG   0.0732   0.1000 
31    H12      3.0430  -39.6129   22.8177 H       1  LIG   0.0789   0.1000 
32    C15      1.6390  -40.0610   21.0880 C.3     1  LIG  -0.1196  -0.2000 
33    H13      0.6832  -39.9283   21.5242 H       1  LIG   0.0807   0.1000 
34    H14      1.5292  -40.4423   20.1061 H       1  LIG   0.0733   0.1000 
@<TRIPOS>BOND
1     2     1     ar
2     3     2     1
3     4     2     ar
4     5     4     1
5     6     4     ar
6     7     6     ar
7     8     7     1
8     9     8     1
9     10    8     1
10    11    10    1
11    12    11    ar
12    13    12    1
13    14    12    ar
14    15    14    1
15    16    14    ar
16    17    16    1
17    18    16    ar
18    19    11    ar
19    19    18    ar
20    20    19    1
21    21    1     ar
22    21    7     ar
23    21    20    1
24    22    6     1
25    23    22    1
26    24    22    1
27    25    22    1
28    26    10    2
29    27    20    1
30    28    27    1
31    29    27    1
32    30    29    1
33    31    29    1
34    32    27    1
35    32    29    1
36    33    32    1
37    34    32    1
@<TRIPOS>SUBSTRUCTURE
1   LIG    1    
 
########## Name        : 1VRT.lig
########## Description : AM1BCC_CHARGES =  -0.0002 ORIGINAL_CHARGES =  -0.0000

@<TRIPOS>MOLECULE
1VRT.lig
34    37    1     0     0    
SMALL
USER_CHARGES
@<TRIPOS>ATOM
1     N1       4.0540  -36.9310   22.2210 N.ar    1  LIG  -0.6650  -0.6200 
2     C1       4.9660  -36.2380   22.9390 C.ar    1  LIG   0.3947   0.1600 
3     H1       6.0082  -36.2811   22.6707 H       1  LIG   0.0281   0.1500 
4     C2       4.6240  -35.4500   24.0360 C.ar    1  LIG  -0.2334  -0.1500 
5     H2       5.3884  -34.9151   24.5740 H       1  LIG   0.1480   0.1500 
6     C3       3.3050  -35.3690   24.4150 C.ar    1  LIG  -0.0698  -0.1435 
7     C4       2.3460  -36.0770   23.6860 C.ar    1  LIG  -0.0398   0.1170 
8     N2       0.9890  -36.0280   24.1030 N.am    1  LIG  -0.4596  -0.5470 
9     H3       0.7643  -35.9928   25.0860 H       1  LIG   0.3311   0.3700 
10    C5      -0.1450  -36.0180   23.4080 C.2     1  LIG   0.7361   0.5438 
11    C6      -0.1190  -36.0770   21.8860 C.ar    1  LIG  -0.2550   0.0862 
12    C7      -1.1230  -35.3990   21.1890 C.ar    1  LIG  -0.0321  -0.1500 
13    H4      -1.7552  -34.6955   21.7041 H       1  LIG   0.1623   0.1500 
14    C8      -1.2960  -35.6300   19.8690 C.ar    1  LIG  -0.2723  -0.1500 
15    H5      -2.0662  -35.1073   19.3273 H       1  LIG   0.1522   0.1500 
16    C9      -0.4670  -36.5450   19.2400 C.ar    1  LIG   0.4373   0.1600 
17    H6      -0.5947  -36.7554   18.1915 H       1  LIG   0.0280   0.1500 
18    N3       0.5220  -37.2120   19.8740 N.ar    1  LIG  -0.6893  -0.6200 
19    C10      0.7040  -36.9790   21.1800 C.ar    1  LIG   0.6480   0.4100 
20    N4       1.7670  -37.6730   21.8260 N.pl3   1  LIG  -0.6924  -0.3690 
21    C11      2.7540  -36.8570   22.5840 C.ar    1  LIG   0.5805   0.4100 
22    C12      2.9040  -34.5090   25.6010 C.3     1  LIG  -0.0620   0.1435 
23    H7       2.2235  -33.7630   25.2820 H       1  LIG   0.0570   0.0000 
24    H8       2.4436  -35.1154   26.3371 H       1  LIG   0.0495   0.0000 
25    H9       3.7654  -34.0491   26.0108 H       1  LIG   0.0519   0.0000 
26    O1      -1.2400  -35.9060   23.9770 O.2     1  LIG  -0.6361  -0.5700 
27    C13      2.3440  -38.7570   21.0360 C.3     1  LIG   0.1354   0.0690 
28    H10      3.1238  -38.3754   20.4296 H       1  LIG   0.0981   0.1000 
29    C14      2.9380  -39.8900   21.8010 C.3     1  LIG  -0.1181  -0.2000 
30    H11      3.8890  -40.1268   21.3997 H       1  LIG   0.0732   0.1000 
31    H12      3.0430  -39.6129   22.8177 H       1  LIG   0.0789   0.1000 
32    C15      1.6390  -40.0610   21.0880 C.3     1  LIG  -0.1196  -0.2000 
33    H13      0.6832  -39.9283   21.5242 H       1  LIG   0.0807   0.1000 
34    H14      1.5292  -40.4423   20.1061 H       1  LIG   0.0733   0.1000 
@<TRIPOS>BOND
1     2     1     ar
2     3     2     1
3     4     2     ar
4     5     4     1
5     6     4     ar
6     7     6     ar
7     8     7     1
8     9     8     1
9     10    8     1
10    11    10    1
11    12    11    ar
12    13    12    1
13    14    12    ar
14    15    14    1
15    16    14    ar
16    17    16    1
17    18    16    ar
18    19    11    ar
19    19    18    ar
20    20    19    1
21    21    1     ar
22    21    7     ar
23    21    20    1
24    22    6     1
25    23    22    1
26    24    22    1
27    25    22    1
28    26    10    2
29    27    20    1
30    28    27    1
31    29    27    1
32    30    29    1
33    31    29    1
34    32    27    1
35    32    29    1
36    33    32    1
37    34    32    1
@<TRIPOS>SUBSTRUCTURE
1   LIG    1    
 
########## Name        : 1VRT.lig
########## Description : AM1BCC_CHARGES =  -0.0002 ORIGINAL_CHARGES =  -0.0000

@<TRIPOS>MOLECULE
1VRT.lig
34    37    1     0     0    
SMALL
USER_CHARGES
@<TRIPOS>ATOM
1     N1       4.0540  -36.9310   22.2210 N.ar    1  LIG  -0.6650  -0.6200 
2     C1       4.9660  -36.2380   22.9390 C.ar    1  LIG   0.3947   0.1600 
3     H1       6.0082  -36.2811   22.6707 H       1  LIG   0.0281   0.1500 
4     C2       4.6240  -35.4500   24.0360 C.ar    1  LIG  -0.2334  -0.1500 
5     H2       5.3884  -34.9151   24.5740 H       1  LIG   0.1480   0.1500 
6     C3       3.3050  -35.3690   24.4150 C.ar    1  LIG  -0.0698  -0.1435 
7     C4       2.3460  -36.0770   23.6860 C.ar    1  LIG  -0.0398   0.1170 
8     N2       0.9890  -36.0280   24.1030 N.am    1  LIG  -0.4596  -0.5470 
9     H3       0.7643  -35.9928   25.0860 H       1  LIG   0.3311   0.3700 
10    C5      -0.1450  -36.0180   23.4080 C.2     1  LIG   0.7361   0.5438 
11    C6      -0.1190  -36.0770   21.8860 C.ar    1  LIG  -0.2550   0.0862 
12    C7      -1.1230  -35.3990   21.1890 C.ar    1  LIG  -0.0321  -0.1500 
13    H4      -1.7552  -34.6955   21.7041 H       1  LIG   0.1623   0.1500 
14    C8      -1.2960  -35.6300   19.8690 C.ar    1  LIG  -0.2723  -0.1500 
15    H5      -2.0662  -35.1073   19.3273 H       1  LIG   0.1522   0.1500 
16    C9      -0.4670  -36.5450   19.2400 C.ar    1  LIG   0.4373   0.1600 
17    H6      -0.5947  -36.7554   18.1915 H       1  LIG   0.0280   0.1500 
18    N3       0.5220  -37.2120   19.8740 N.ar    1  LIG  -0.6893  -0.6200 
19    C10      0.7040  -36.9790   21.1800 C.ar    1  LIG   0.6480   0.4100 
20    N4       1.7670  -37.6730   21.8260 N.pl3   1  LIG  -0.6924  -0.3690 
21    C11      2.7540  -36.8570   22.5840 C.ar    1  LIG   0.5805   0.4100 
22    C12      2.9040  -34.5090   25.6010 C.3     1  LIG  -0.0620   0.1435 
23    H7       2.2235  -33.7630   25.2820 H       1  LIG   0.0570   0.0000 
24    H8       2.4436  -35.1154   26.3371 H       1  LIG   0.0495   0.0000 
25    H9       3.7654  -34.0491   26.0108 H       1  LIG   0.0519   0.0000 
26    O1      -1.2400  -35.9060   23.9770 O.2     1  LIG  -0.6361  -0.5700 
27    C13      2.3440  -38.7570   21.0360 C.3     1  LIG   0.1354   0.0690 
28    H10      3.1238  -38.3754   20.4296 H       1  LIG   0.0981   0.1000 
29    C14      2.9380  -39.8900   21.8010 C.3     1  LIG  -0.1181  -0.2000 
30    H11      3.8890  -40.1268   21.3997 H       1  LIG   0.0732   0.1000 
31    H12      3.0430  -39.6129   22.8177 H       1  LIG   0.0789   0.1000 
32    C15      1.6390  -40.0610   21.0880 C.3     1  LIG  -0.1196  -0.2000 
33    H13      0.6832  -39.9283   21.5242 H       1  LIG   0.0807   0.1000 
34    H14      1.5292  -40.4423   20.1061 H       1  LIG   0.0733   0.1000 
@<TRIPOS>BOND
1     2     1     ar
2     3     2     1
3     4     2     ar
4     5     4     1
5     6     4     ar
6     7     6     ar
7     8     7     1
8     9     8     1
9     10    8     1
10    11    10    1
11    12    11    ar
12    13    12    1
13    14    12    ar
14    15    14    1
15    16    14    ar
16    17    16    1
17    18    16    ar
18    19    11    ar
19    19    18    ar
20    20    19    1
21    21    1     ar
22    21    7     ar
23    21    20    1
24    22    6     1
25    23    22    1
26    24    22    1
27    25    22    1
28    26    10    2
29    27    20    1
30    28    27    1
31    29    27    1
32    30    29    1
33    31    29    1
34    32    27    1
35    32    29    1
36    33    32    1
37    34    32    1
@<TRIPOS>SUBSTRUCTURE
1   LIG    1    
 
########## Name        : 1VRT.lig
########## Description : AM1BCC_CHARGES =  -0.0002 ORIGINAL_CHARGES =  -0.0000

@<TRIPOS>MOLECULE
1VRT.lig
34    37    1     0     0    
SMALL
USER_CHARGES
@<TRIPOS>ATOM
1     N1       4.0540  -36.9310   22.2210 N.ar    1  LIG  -0.6650  -0.6200 
2     C1       4.9660  -36.2380   22.9390 C.ar    1  LIG   0.3947   0.1600 
3     H1       6.0082  -36.2811   22.6707 H       1  LIG   0.0281   0.1500 
4     C2       4.6240  -35.4500   24.0360 C.ar    1  LIG  -0.2334  -0.1500 
5     H2       5.3884  -34.9151   24.5740 H       1  LIG   0.1480   0.1500 
6     C3       3.3050  -35.3690   24.4150 C.ar    1  LIG  -0.0698  -0.1435 
7     C4       2.3460  -36.0770   23.6860 C.ar    1  LIG  -0.0398   0.1170 
8     N2       0.9890  -36.0280   24.1030 N.am    1  LIG  -0.4596  -0.5470 
9     H3       0.7643  -35.9928   25.0860 H       1  LIG   0.3311   0.3700 
10    C5      -0.1450  -36.0180   23.4080 C.2     1  LIG   0.7361   0.5438 
11    C6      -0.1190  -36.0770   21.8860 C.ar    1  LIG  -0.2550   0.0862 
12    C7      -1.1230  -35.3990   21.1890 C.ar    1  LIG  -0.0321  -0.1500 
13    H4      -1.7552  -34.6955   21.7041 H       1  LIG   0.1623   0.1500 
14    C8      -1.2960  -35.6300   19.8690 C.ar    1  LIG  -0.2723  -0.1500 
15    H5      -2.0662  -35.1073   19.3273 H       1  LIG   0.1522   0.1500 
16    C9      -0.4670  -36.5450   19.2400 C.ar    1  LIG   0.4373   0.1600 
17    H6      -0.5947  -36.7554   18.1915 H       1  LIG   0.0280   0.1500 
18    N3       0.5220  -37.2120   19.8740 N.ar    1  LIG  -0.6893  -0.6200 
19    C10      0.7040  -36.9790   21.1800 C.ar    1  LIG   0.6480   0.4100 
20    N4       1.7670  -37.6730   21.8260 N.pl3   1  LIG  -0.6924  -0.3690 
21    C11      2.7540  -36.8570   22.5840 C.ar    1  LIG   0.5805   0.4100 
22    C12      2.9040  -34.5090   25.6010 C.3     1  LIG  -0.0620   0.1435 
23    H7       2.2235  -33.7630   25.2820 H       1  LIG   0.0570   0.0000 
24    H8       2.4436  -35.1154   26.3371 H       1  LIG   0.0495   0.0000 
25    H9       3.7654  -34.0491   26.0108 H       1  LIG   0.0519   0.0000 
26    O1      -1.2400  -35.9060   23.9770 O.2     1  LIG  -0.6361  -0.5700 
27    C13      2.3440  -38.7570   21.0360 C.3     1  LIG   0.1354   0.0690 
28    H10      3.1238  -38.3754   20.4296 H       1  LIG   0.0981   0.1000 
29    C14      2.9380  -39.8900   21.8010 C.3     1  LIG  -0.1181  -0.2000 
30    H11      3.8890  -40.1268   21.3997 H       1  LIG   0.0732   0.1000 
31    H12      3.0430  -39.6129   22.8177 H       1  LIG   0.0789   0.1000 
32    C15      1.6390  -40.0610   21.0880 C.3     1  LIG  -0.1196  -0.2000 
33    H13      0.6832  -39.9283   21.5242 H       1  LIG   0.0807   0.1000 
34    H14      1.5292  -40.4423   20.1061 H       1  LIG   0.0733   0.1000 
@<TRIPOS>BOND
1     2     1     ar
2     3     2     1
3     4     2     ar
4     5     4     1
5     6     4     ar
6     7     6     ar
7     8     7     1
8     9     8     1
9     10    8     1
10    11    10    1
11    12    11    ar
12    13    12    1
13    14    12    ar
14    15    14    1
15    16    14    ar
16    17    16    1
17    18    16    ar
18    19    11    ar
19    19    18    ar
20    20    19    1
21    21    1     ar
22    21    7     ar
23    21    20    1
24    22    6     1
25    23    22    1
26    24    22    1
27    25    22    1
28    26    10    2
29    27    20    1
30    28    27    1
31    29    27    1
32    30    29    1
33    31    29    1
34    32    27    1
35    32    29    1
36    33    32    1
37    34    32    1
@<TRIPOS>SUBSTRUCTURE
1   LIG    1    
 
########## Name        : 1VRT.lig
########## Description : AM1BCC_CHARGES =  -0.0002 ORIGINAL_CHARGES =  -0.0000

@<TRIPOS>MOLECULE
1VRT.lig
34    37    1     0     0    
SMALL
USER_CHARGES
@<TRIPOS>ATOM
1     N1       4.0540  -36.9310   22.2210 N.ar    1  LIG  -0.6650  -0.6200 
2     C1       4.9660  -36.2380   22.9390 C.ar    1  LIG   0.3947   0.1600 
3     H1       6.0082  -36.2811   22.6707 H       1  LIG   0.0281   0.1500 
4     C2       4.6240  -35.4500   24.0360 C.ar    1  LIG  -0.2334  -0.1500 
5     H2       5.3884  -34.9151   24.5740 H       1  LIG   0.1480   0.1500 
6     C3       3.3050  -35.3690   24.4150 C.ar    1  LIG  -0.0698  -0.1435 
7     C4       2.3460  -36.0770   23.6860 C.ar    1  LIG  -0.0398   0.1170 
8     N2       0.9890  -36.0280   24.1030 N.am    1  LIG  -0.4596  -0.5470 
9     H3       0.7643  -35.9928   25.0860 H       1  LIG   0.3311   0.3700 
10    C5      -0.1450  -36.0180   23.4080 C.2     1  LIG   0.7361   0.5438 
11    C6      -0.1190  -36.0770   21.8860 C.ar    1  LIG  -0.2550   0.0862 
12    C7      -1.1230  -35.3990   21.1890 C.ar    1  LIG  -0.0321  -0.1500 
13    H4      -1.7552  -34.6955   21.7041 H       1  LIG   0.1623   0.1500 
14    C8      -1.2960  -35.6300   19.8690 C.ar    1  LIG  -0.2723  -0.1500 
15    H5      -2.0662  -35.1073   19.3273 H       1  LIG   0.1522   0.1500 
16    C9      -0.4670  -36.5450   19.2400 C.ar    1  LIG   0.4373   0.1600 
17    H6      -0.5947  -36.7554   18.1915 H       1  LIG   0.0280   0.1500 
18    N3       0.5220  -37.2120   19.8740 N.ar    1  LIG  -0.6893  -0.6200 
19    C10      0.7040  -36.9790   21.1800 C.ar    1  LIG   0.6480   0.4100 
20    N4       1.7670  -37.6730   21.8260 N.pl3   1  LIG  -0.6924  -0.3690 
21    C11      2.7540  -36.8570   22.5840 C.ar    1  LIG   0.5805   0.4100 
22    C12      2.9040  -34.5090   25.6010 C.3     1  LIG  -0.0620   0.1435 
23    H7       2.2235  -33.7630   25.2820 H       1  LIG   0.0570   0.0000 
24    H8       2.4436  -35.1154   26.3371 H       1  LIG   0.0495   0.0000 
25    H9       3.7654  -34.0491   26.0108 H       1  LIG   0.0519   0.0000 
26    O1      -1.2400  -35.9060   23.9770 O.2     1  LIG  -0.6361  -0.5700 
27    C13      2.3440  -38.7570   21.0360 C.3     1  LIG   0.1354   0.0690 
28    H10      3.1238  -38.3754   20.4296 H       1  LIG   0.0981   0.1000 
29    C14      2.9380  -39.8900   21.8010 C.3     1  LIG  -0.1181  -0.2000 
30    H11      3.8890  -40.1268   21.3997 H       1  LIG   0.0732   0.1000 
31    H12      3.0430  -39.6129   22.8177 H       1  LIG   0.0789   0.1000 
32    C15      1.6390  -40.0610   21.0880 C.3     1  LIG  -0.1196  -0.2000 
33    H13      0.6832  -39.9283   21.5242 H       1  LIG   0.0807   0.1000 
34    H14      1.5292  -40.4423   20.1061 H       1  LIG   0.0733   0.1000 
@<TRIPOS>BOND
1     2     1     ar
2     3     2     1
3     4     2     ar
4     5     4     1
5     6     4     ar
6     7     6     ar
7     8     7     1
8     9     8     1
9     10    8     1
10    11    10    1
11    12    11    ar
12    13    12    1
13    14    12    ar
14    15    14    1
15    16    14    ar
16    17    16    1
17    18    16    ar
18    19    11    ar
19    19    18    ar
20    20    19    1
21    21    1     ar
22    21    7     ar
23    21    20    1
24    22    6     1
25    23    22    1
26    24    22    1
27    25    22    1
28    26    10    2
29    27    20    1
30    28    27    1
31    29    27    1
32    30    29    1
33    31    29    1
34    32    27    1
35    32    29    1
36    33    32    1
37    34    32    1
@<TRIPOS>SUBSTRUCTURE
1   LIG    1    
 
########## Name        : 1VRT.lig
########## Description : AM1BCC_CHARGES =  -0.0002 ORIGINAL_CHARGES =  -0.0000

@<TRIPOS>MOLECULE
1VRT.lig
34    37    1     0     0    
SMALL
USER_CHARGES
@<TRIPOS>ATOM
1     N1       4.0540  -36.9310   22.2210 N.ar    1  LIG  -0.6650  -0.6200 
2     C1       4.9660  -36.2380   22.9390 C.ar    1  LIG   0.3947   0.1600 
3     H1       6.0082  -36.2811   22.6707 H       1  LIG   0.0281   0.1500 
4     C2       4.6240  -35.4500   24.0360 C.ar    1  LIG  -0.2334  -0.1500 
5     H2       5.3884  -34.9151   24.5740 H       1  LIG   0.1480   0.1500 
6     C3       3.3050  -35.3690   24.4150 C.ar    1  LIG  -0.0698  -0.1435 
7     C4       2.3460  -36.0770   23.6860 C.ar    1  LIG  -0.0398   0.1170 
8     N2       0.9890  -36.0280   24.1030 N.am    1  LIG  -0.4596  -0.5470 
9     H3       0.7643  -35.9928   25.0860 H       1  LIG   0.3311   0.3700 
10    C5      -0.1450  -36.0180   23.4080 C.2     1  LIG   0.7361   0.5438 
11    C6      -0.1190  -36.0770   21.8860 C.ar    1  LIG  -0.2550   0.0862 
12    C7      -1.1230  -35.3990   21.1890 C.ar    1  LIG  -0.0321  -0.1500 
13    H4      -1.7552  -34.6955   21.7041 H       1  LIG   0.1623   0.1500 
14    C8      -1.2960  -35.6300   19.8690 C.ar    1  LIG  -0.2723  -0.1500 
15    H5      -2.0662  -35.1073   19.3273 H       1  LIG   0.1522   0.1500 
16    C9      -0.4670  -36.5450   19.2400 C.ar    1  LIG   0.4373   0.1600 
17    H6      -0.5947  -36.7554   18.1915 H       1  LIG   0.0280   0.1500 
18    N3       0.5220  -37.2120   19.8740 N.ar    1  LIG  -0.6893  -0.6200 
19    C10      0.7040  -36.9790   21.1800 C.ar    1  LIG   0.6480   0.4100 
20    N4       1.7670  -37.6730   21.8260 N.pl3   1  LIG  -0.6924  -0.3690 
21    C11      2.7540  -36.8570   22.5840 C.ar    1  LIG   0.5805   0.4100 
22    C12      2.9040  -34.5090   25.6010 C.3     1  LIG  -0.0620   0.1435 
23    H7       2.2235  -33.7630   25.2820 H       1  LIG   0.0570   0.0000 
24    H8       2.4436  -35.1154   26.3371 H       1  LIG   0.0495   0.0000 
25    H9       3.7654  -34.0491   26.0108 H       1  LIG   0.0519   0.0000 
26    O1      -1.2400  -35.9060   23.9770 O.2     1  LIG  -0.6361  -0.5700 
27    C13      2.3440  -38.7570   21.0360 C.3     1  LIG   0.1354   0.0690 
28    H10      3.1238  -38.3754   20.4296 H       1  LIG   0.0981   0.1000 
29    C14      2.9380  -39.8900   21.8010 C.3     1  LIG  -0.1181  -0.2000 
30    H11      3.8890  -40.1268   21.3997 H       1  LIG   0.0732   0.1000 
31    H12      3.0430  -39.6129   22.8177 H       1  LIG   0.0789   0.1000 
32    C15      1.6390  -40.0610   21.0880 C.3     1  LIG  -0.1196  -0.2000 
33    H13      0.6832  -39.9283   21.5242 H       1  LIG   0.0807   0.1000 
34    H14      1.5292  -40.4423   20.1061 H       1  LIG   0.0733   0.1000 
@<TRIPOS>BOND
1     2     1     ar
2     3     2     1
3     4     2     ar
4     5     4     1
5     6     4     ar
6     7     6     ar
7     8     7     1
8     9     8     1
9     10    8     1
10    11    10    1
11    12    11    ar
12    13    12    1
13    14    12    ar
14    15    14    1
15    16    14    ar
16    17    16    1
17    18    16    ar
18    19    11    ar
19    19    18    ar
20    20    19    1
21    21    1     ar
22    21    7     ar
23    21    20    1
24    22    6     1
25    23    22    1
26    24    22    1
27    25    22    1
28    26    10    2
29    27    20    1
30    28    27    1
31    29    27    1
32    30    29    1
33    31    29    1
34    32    27    1
35    32    29    1
36    33    32    1
37    34    32    1
@<TRIPOS>SUBSTRUCTURE
1   LIG    1    
 
########## Name        : 1VRT.lig
########## Description : AM1BCC_CHARGES =  -0.0002 ORIGINAL_CHARGES =  -0.0000

@<TRIPOS>MOLECULE
1VRT.lig
34    37    1     0     0    
SMALL
USER_CHARGES
@<TRIPOS>ATOM
1     N1       4.0540  -36.9310   22.2210 N.ar    1  LIG  -0.6650  -0.6200 
2     C1       4.9660  -36.2380   22.9390 C.ar    1  LIG   0.3947   0.1600 
3     H1       6.0082  -36.2811   22.6707 H       1  LIG   0.0281   0.1500 
4     C2       4.6240  -35.4500   24.0360 C.ar    1  LIG  -0.2334  -0.1500 
5     H2       5.3884  -34.9151   24.5740 H       1  LIG   0.1480   0.1500 
6     C3       3.3050  -35.3690   24.4150 C.ar    1  LIG  -0.0698  -0.1435 
7     C4       2.3460  -36.0770   23.6860 C.ar    1  LIG  -0.0398   0.1170 
8     N2       0.9890  -36.0280   24.1030 N.am    1  LIG  -0.4596  -0.5470 
9     H3       0.7643  -35.9928   25.0860 H       1  LIG   0.3311   0.3700 
10    C5      -0.1450  -36.0180   23.4080 C.2     1  LIG   0.7361   0.5438 
11    C6      -0.1190  -36.0770   21.8860 C.ar    1  LIG  -0.2550   0.0862 
12    C7      -1.1230  -35.3990   21.1890 C.ar    1  LIG  -0.0321  -0.1500 
13    H4      -1.7552  -34.6955   21.7041 H       1  LIG   0.1623   0.1500 
14    C8      -1.2960  -35.6300   19.8690 C.ar    1  LIG  -0.2723  -0.1500 
15    H5      -2.0662  -35.1073   19.3273 H       1  LIG   0.1522   0.1500 
16    C9      -0.4670  -36.5450   19.2400 C.ar    1  LIG   0.4373   0.1600 
17    H6      -0.5947  -36.7554   18.1915 H       1  LIG   0.0280   0.1500 
18    N3       0.5220  -37.2120   19.8740 N.ar    1  LIG  -0.6893  -0.6200 
19    C10      0.7040  -36.9790   21.1800 C.ar    1  LIG   0.6480   0.4100 
20    N4       1.7670  -37.6730   21.8260 N.pl3   1  LIG  -0.6924  -0.3690 
21    C11      2.7540  -36.8570   22.5840 C.ar    1  LIG   0.5805   0.4100 
22    C12      2.9040  -34.5090   25.6010 C.3     1  LIG  -0.0620   0.1435 
23    H7       2.2235  -33.7630   25.2820 H       1  LIG   0.0570   0.0000 
24    H8       2.4436  -35.1154   26.3371 H       1  LIG   0.0495   0.0000 
25    H9       3.7654  -34.0491   26.0108 H       1  LIG   0.0519   0.0000 
26    O1      -1.2400  -35.9060   23.9770 O.2     1  LIG  -0.6361  -0.5700 
27    C13      2.3440  -38.7570   21.0360 C.3     1  LIG   0.1354   0.0690 
28    H10      3.1238  -38.3754   20.4296 H       1  LIG   0.0981   0.1000 
29    C14      2.9380  -39.8900   21.8010 C.3     1  LIG  -0.1181  -0.2000 
30    H11      3.8890  -40.1268   21.3997 H       1  LIG   0.0732   0.1000 
31    H12      3.0430  -39.6129   22.8177 H       1  LIG   0.0789   0.1000 
32    C15      1.6390  -40.0610   21.0880 C.3     1  LIG  -0.1196  -0.2000 
33    H13      0.6832  -39.9283   21.5242 H       1  LIG   0.0807   0.1000 
34    H14      1.5292  -40.4423   20.1061 H       1  LIG   0.0733   0.1000 
@<TRIPOS>BOND
1     2     1     ar
2     3     2     1
3     4     2     ar
4     5     4     1
5     6     4     ar
6     7     6     ar
7     8     7     1
8     9     8     1
9     10    8     1
10    11    10    1
11    12    11    ar
12    13    12    1
13    14    12    ar
14    15    14    1
15    16    14    ar
16    17    16    1
17    18    16    ar
18    19    11    ar
19    19    18    ar
20    20    19    1
21    21    1     ar
22    21    7     ar
23    21    20    1
24    22    6     1
25    23    22    1
26    24    22    1
27    25    22    1
28    26    10    2
29    27    20    1
30    28    27    1
31    29    27    1
32    30    29    1
33    31    29    1
34    32    27    1
35    32    29    1
36    33    32    1
37    34    32    1
@<TRIPOS>SUBSTRUCTURE
1   LIG    1    
 
########## Name        : 1VRT.lig
########## Description : AM1BCC_CHARGES =  -0.0002 ORIGINAL_CHARGES =  -0.0000

@<TRIPOS>MOLECULE
1VRT.lig
34    37    1     0     0    
SMALL
USER_CHARGES
@<TRIPOS>ATOM
1     N1       4.0540  -36.9310   22.2210 N.ar    1  LIG  -0.6650  -0.6200 
2     C1       4.9660  -36.2380   22.9390 C.ar    1  LIG   0.3947   0.1600 
3     H1       6.0082  -36.2811   22.6707 H       1  LIG   0.0281   0.1500 
4     C2       4.6240  -35.4500   24.0360 C.ar    1  LIG  -0.2334  -0.1500 
5     H2       5.3884  -34.9151   24.5740 H       1  LIG   0.1480   0.1500 
6     C3       3.3050  -35.3690   24.4150 C.ar    1  LIG  -0.0698  -0.1435 
7     C4       2.3460  -36.0770   23.6860 C.ar    1  LIG  -0.0398   0.1170 
8     N2       0.9890  -36.0280   24.1030 N.am    1  LIG  -0.4596  -0.5470 
9     H3       0.7643  -35.9928   25.0860 H       1  LIG   0.3311   0.3700 
10    C5      -0.1450  -36.0180   23.4080 C.2     1  LIG   0.7361   0.5438 
11    C6      -0.1190  -36.0770   21.8860 C.ar    1  LIG  -0.2550   0.0862 
12    C7      -1.1230  -35.3990   21.1890 C.ar    1  LIG  -0.0321  -0.1500 
13    H4      -1.7552  -34.6955   21.7041 H       1  LIG   0.1623   0.1500 
14    C8      -1.2960  -35.6300   19.8690 C.ar    1  LIG  -0.2723  -0.1500 
15    H5      -2.0662  -35.1073   19.3273 H       1  LIG   0.1522   0.1500 
16    C9      -0.4670  -36.5450   19.2400 C.ar    1  LIG   0.4373   0.1600 
17    H6      -0.5947  -36.7554   18.1915 H       1  LIG   0.0280   0.1500 
18    N3       0.5220  -37.2120   19.8740 N.ar    1  LIG  -0.6893  -0.6200 
19    C10      0.7040  -36.9790   21.1800 C.ar    1  LIG   0.6480   0.4100 
20    N4       1.7670  -37.6730   21.8260 N.pl3   1  LIG  -0.6924  -0.3690 
21    C11      2.7540  -36.8570   22.5840 C.ar    1  LIG   0.5805   0.4100 
22    C12      2.9040  -34.5090   25.6010 C.3     1  LIG  -0.0620   0.1435 
23    H7       2.2235  -33.7630   25.2820 H       1  LIG   0.0570   0.0000 
24    H8       2.4436  -35.1154   26.3371 H       1  LIG   0.0495   0.0000 
25    H9       3.7654  -34.0491   26.0108 H       1  LIG   0.0519   0.0000 
26    O1      -1.2400  -35.9060   23.9770 O.2     1  LIG  -0.6361  -0.5700 
27    C13      2.3440  -38.7570   21.0360 C.3     1  LIG   0.1354   0.0690 
28    H10      3.1238  -38.3754   20.4296 H       1  LIG   0.0981   0.1000 
29    C14      2.9380  -39.8900   21.8010 C.3     1  LIG  -0.1181  -0.2000 
30    H11      3.8890  -40.1268   21.3997 H       1  LIG   0.0732   0.1000 
31    H12      3.0430  -39.6129   22.8177 H       1  LIG   0.0789   0.1000 
32    C15      1.6390  -40.0610   21.0880 C.3     1  LIG  -0.1196  -0.2000 
33    H13      0.6832  -39.9283   21.5242 H       1  LIG   0.0807   0.1000 
34    H14      1.5292  -40.4423   20.1061 H       1  LIG   0.0733   0.1000 
@<TRIPOS>BOND
1     2     1     ar
2     3     2     1
3     4     2     ar
4     5     4     1
5     6     4     ar
6     7     6     ar
7     8     7     1
8     9     8     1
9     10    8     1
10    11    10    1
11    12    11    ar
12    13    12    1
13    14    12    ar
14    15    14    1
15    16    14    ar
16    17    16    1
17    18    16    ar
18    19    11    ar
19    19    18    ar
20    20    19    1
21    21    1     ar
22    21    7     ar
23    21    20    1
24    22    6     1
25    23    22    1
26    24    22    1
27    25    22    1
28    26    10    2
29    27    20    1
30    28    27    1
31    29    27    1
32    30    29    1
33    31    29    1
34    32    27    1
35    32    29    1
36    33    32    1
37    34    32    1
@<TRIPOS>SUBSTRUCTURE
1   LIG    1    
 
########## Name        : 1VRT.lig
########## Description : AM1BCC_CHARGES =  -0.0002 ORIGINAL_CHARGES =  -0.0000

@<TRIPOS>MOLECULE
1VRT.lig
34    37    1     0     0    
SMALL
USER_CHARGES
@<TRIPOS>ATOM
1     N1       4.0540  -36.9310   22.2210 N.ar    1  LIG  -0.6650  -0.6200 
2     C1       4.9660  -36.2380   22.9390 C.ar    1  LIG   0.3947   0.1600 
3     H1       6.0082  -36.2811   22.6707 H       1  LIG   0.0281   0.1500 
4     C2       4.6240  -35.4500   24.0360 C.ar    1  LIG  -0.2334  -0.1500 
5     H2       5.3884  -34.9151   24.5740 H       1  LIG   0.1480   0.1500 
6     C3       3.3050  -35.3690   24.4150 C.ar    1  LIG  -0.0698  -0.1435 
7     C4       2.3460  -36.0770   23.6860 C.ar    1  LIG  -0.0398   0.1170 
8     N2       0.9890  -36.0280   24.1030 N.am    1  LIG  -0.4596  -0.5470 
9     H3       0.7643  -35.9928   25.0860 H       1  LIG   0.3311   0.3700 
10    C5      -0.1450  -36.0180   23.4080 C.2     1  LIG   0.7361   0.5438 
11    C6      -0.1190  -36.0770   21.8860 C.ar    1  LIG  -0.2550   0.0862 
12    C7      -1.1230  -35.3990   21.1890 C.ar    1  LIG  -0.0321  -0.1500 
13    H4      -1.7552  -34.6955   21.7041 H       1  LIG   0.1623   0.1500 
14    C8      -1.2960  -35.6300   19.8690 C.ar    1  LIG  -0.2723  -0.1500 
15    H5      -2.0662  -35.1073   19.3273 H       1  LIG   0.1522   0.1500 
16    C9      -0.4670  -36.5450   19.2400 C.ar    1  LIG   0.4373   0.1600 
17    H6      -0.5947  -36.7554   18.1915 H       1  LIG   0.0280   0.1500 
18    N3       0.5220  -37.2120   19.8740 N.ar    1  LIG  -0.6893  -0.6200 
19    C10      0.7040  -36.9790   21.1800 C.ar    1  LIG   0.6480   0.4100 
20    N4       1.7670  -37.6730   21.8260 N.pl3   1  LIG  -0.6924  -0.3690 
21    C11      2.7540  -36.8570   22.5840 C.ar    1  LIG   0.5805   0.4100 
22    C12      2.9040  -34.5090   25.6010 C.3     1  LIG  -0.0620   0.1435 
23    H7       2.2235  -33.7630   25.2820 H       1  LIG   0.0570   0.0000 
24    H8       2.4436  -35.1154   26.3371 H       1  LIG   0.0495   0.0000 
25    H9       3.7654  -34.0491   26.0108 H       1  LIG   0.0519   0.0000 
26    O1      -1.2400  -35.9060   23.9770 O.2     1  LIG  -0.6361  -0.5700 
27    C13      2.3440  -38.7570   21.0360 C.3     1  LIG   0.1354   0.0690 
28    H10      3.1238  -38.3754   20.4296 H       1  LIG   0.0981   0.1000 
29    C14      2.9380  -39.8900   21.8010 C.3     1  LIG  -0.1181  -0.2000 
30    H11      3.8890  -40.1268   21.3997 H       1  LIG   0.0732   0.1000 
31    H12      3.0430  -39.6129   22.8177 H       1  LIG   0.0789   0.1000 
32    C15      1.6390  -40.0610   21.0880 C.3     1  LIG  -0.1196  -0.2000 
33    H13      0.6832  -39.9283   21.5242 H       1  LIG   0.0807   0.1000 
34    H14      1.5292  -40.4423   20.1061 H       1  LIG   0.0733   0.1000 
@<TRIPOS>BOND
1     2     1     ar
2     3     2     1
3     4     2     ar
4     5     4     1
5     6     4     ar
6     7     6     ar
7     8     7     1
8     9     8     1
9     10    8     1
10    11    10    1
11    12    11    ar
12    13    12    1
13    14    12    ar
14    15    14    1
15    16    14    ar
16    17    16    1
17    18    16    ar
18    19    11    ar
19    19    18    ar
20    20    19    1
21    21    1     ar
22    21    7     ar
23    21    20    1
24    22    6     1
25    23    22    1
26    24    22    1
27    25    22    1
28    26    10    2
29    27    20    1
30    28    27    1
31    29    27    1
32    30    29    1
33    31    29    1
34    32    27    1
35    32    29    1
36    33    32    1
37    34    32    1
@<TRIPOS>SUBSTRUCTURE
1   LIG    1    
 
########## Name        : 1VRT.lig
########## Description : AM1BCC_CHARGES =  -0.0002 ORIGINAL_CHARGES =  -0.0000

@<TRIPOS>MOLECULE
1VRT.lig
34    37    1     0     0    
SMALL
USER_CHARGES
@<TRIPOS>ATOM
1     N1       4.0540  -36.9310   22.2210 N.ar    1  LIG  -0.6650  -0.6200 
2     C1       4.9660  -36.2380   22.9390 C.ar    1  LIG   0.3947   0.1600 
3     H1       6.0082  -36.2811   22.6707 H       1  LIG   0.0281   0.1500 
4     C2       4.6240  -35.4500   24.0360 C.ar    1  LIG  -0.2334  -0.1500 
5     H2       5.3884  -34.9151   24.5740 H       1  LIG   0.1480   0.1500 
6     C3       3.3050  -35.3690   24.4150 C.ar    1  LIG  -0.0698  -0.1435 
7     C4       2.3460  -36.0770   23.6860 C.ar    1  LIG  -0.0398   0.1170 
8     N2       0.9890  -36.0280   24.1030 N.am    1  LIG  -0.4596  -0.5470 
9     H3       0.7643  -35.9928   25.0860 H       1  LIG   0.3311   0.3700 
10    C5      -0.1450  -36.0180   23.4080 C.2     1  LIG   0.7361   0.5438 
11    C6      -0.1190  -36.0770   21.8860 C.ar    1  LIG  -0.2550   0.0862 
12    C7      -1.1230  -35.3990   21.1890 C.ar    1  LIG  -0.0321  -0.1500 
13    H4      -1.7552  -34.6955   21.7041 H       1  LIG   0.1623   0.1500 
14    C8      -1.2960  -35.6300   19.8690 C.ar    1  LIG  -0.2723  -0.1500 
15    H5      -2.0662  -35.1073   19.3273 H       1  LIG   0.1522   0.1500 
16    C9      -0.4670  -36.5450   19.2400 C.ar    1  LIG   0.4373   0.1600 
17    H6      -0.5947  -36.7554   18.1915 H       1  LIG   0.0280   0.1500 
18    N3       0.5220  -37.2120   19.8740 N.ar    1  LIG  -0.6893  -0.6200 
19    C10      0.7040  -36.9790   21.1800 C.ar    1  LIG   0.6480   0.4100 
20    N4       1.7670  -37.6730   21.8260 N.pl3   1  LIG  -0.6924  -0.3690 
21    C11      2.7540  -36.8570   22.5840 C.ar    1  LIG   0.5805   0.4100 
22    C12      2.9040  -34.5090   25.6010 C.3     1  LIG  -0.0620   0.1435 
23    H7       2.2235  -33.7630   25.2820 H       1  LIG   0.0570   0.0000 
24    H8       2.4436  -35.1154   26.3371 H       1  LIG   0.0495   0.0000 
25    H9       3.7654  -34.0491   26.0108 H       1  LIG   0.0519   0.0000 
26    O1      -1.2400  -35.9060   23.9770 O.2     1  LIG  -0.6361  -0.5700 
27    C13      2.3440  -38.7570   21.0360 C.3     1  LIG   0.1354   0.0690 
28    H10      3.1238  -38.3754   20.4296 H       1  LIG   0.0981   0.1000 
29    C14      2.9380  -39.8900   21.8010 C.3     1  LIG  -0.1181  -0.2000 
30    H11      3.8890  -40.1268   21.3997 H       1  LIG   0.0732   0.1000 
31    H12      3.0430  -39.6129   22.8177 H       1  LIG   0.0789   0.1000 
32    C15      1.6390  -40.0610   21.0880 C.3     1  LIG  -0.1196  -0.2000 
33    H13      0.6832  -39.9283   21.5242 H       1  LIG   0.0807   0.1000 
34    H14      1.5292  -40.4423   20.1061 H       1  LIG   0.0733   0.1000 
@<TRIPOS>BOND
1     2     1     ar
2     3     2     1
3     4     2     ar
4     5     4     1
5     6     4     ar
6     7     6     ar
7     8     7     1
8     9     8     1
9     10    8     1
10    11    10    1
11    12    11    ar
12    13    12    1
13    14    12    ar
14    15    14    1
15    16    14    ar
16    17    16    1
17    18    16    ar
18    19    11    ar
19    19    18    ar
20    20    19    1
21    21    1     ar
22    21    7     ar
23    21    20    1
24    22    6     1
25    23    22    1
26    24    22    1
27    25    22    1
28    26    10    2
29    27    20    1
30    28    27    1
31    29    27    1
32    30    29    1
33    31    29    1
34    32    27    1
35    32    29    1
36    33    32    1
37    34    32    1
@<TRIPOS>SUBSTRUCTURE
1   LIG    1    
 
########## Name        : 1VRT.lig
########## Description : AM1BCC_CHARGES =  -0.0002 ORIGINAL_CHARGES =  -0.0000

@<TRIPOS>MOLECULE
1VRT.lig
34    37    1     0     0    
SMALL
USER_CHARGES
@<TRIPOS>ATOM
1     N1       4.0540  -36.9310   22.2210 N.ar    1  LIG  -0.6650  -0.6200 
2     C1       4.9660  -36.2380   22.9390 C.ar    1  LIG   0.3947   0.1600 
3     H1       6.0082  -36.2811   22.6707 H       1  LIG   0.0281   0.1500 
4     C2       4.6240  -35.4500   24.0360 C.ar    1  LIG  -0.2334  -0.1500 
5     H2       5.3884  -34.9151   24.5740 H       1  LIG   0.1480   0.1500 
6     C3       3.3050  -35.3690   24.4150 C.ar    1  LIG  -0.0698  -0.1435 
7     C4       2.3460  -36.0770   23.6860 C.ar    1  LIG  -0.0398   0.1170 
8     N2       0.9890  -36.0280   24.1030 N.am    1  LIG  -0.4596  -0.5470 
9     H3       0.7643  -35.9928   25.0860 H       1  LIG   0.3311   0.3700 
10    C5      -0.1450  -36.0180   23.4080 C.2     1  LIG   0.7361   0.5438 
11    C6      -0.1190  -36.0770   21.8860 C.ar    1  LIG  -0.2550   0.0862 
12    C7      -1.1230  -35.3990   21.1890 C.ar    1  LIG  -0.0321  -0.1500 
13    H4      -1.7552  -34.6955   21.7041 H       1  LIG   0.1623   0.1500 
14    C8      -1.2960  -35.6300   19.8690 C.ar    1  LIG  -0.2723  -0.1500 
15    H5      -2.0662  -35.1073   19.3273 H       1  LIG   0.1522   0.1500 
16    C9      -0.4670  -36.5450   19.2400 C.ar    1  LIG   0.4373   0.1600 
17    H6      -0.5947  -36.7554   18.1915 H       1  LIG   0.0280   0.1500 
18    N3       0.5220  -37.2120   19.8740 N.ar    1  LIG  -0.6893  -0.6200 
19    C10      0.7040  -36.9790   21.1800 C.ar    1  LIG   0.6480   0.4100 
20    N4       1.7670  -37.6730   21.8260 N.pl3   1  LIG  -0.6924  -0.3690 
21    C11      2.7540  -36.8570   22.5840 C.ar    1  LIG   0.5805   0.4100 
22    C12      2.9040  -34.5090   25.6010 C.3     1  LIG  -0.0620   0.1435 
23    H7       2.2235  -33.7630   25.2820 H       1  LIG   0.0570   0.0000 
24    H8       2.4436  -35.1154   26.3371 H       1  LIG   0.0495   0.0000 
25    H9       3.7654  -34.0491   26.0108 H       1  LIG   0.0519   0.0000 
26    O1      -1.2400  -35.9060   23.9770 O.2     1  LIG  -0.6361  -0.5700 
27    C13      2.3440  -38.7570   21.0360 C.3     1  LIG   0.1354   0.0690 
28    H10      3.1238  -38.3754   20.4296 H       1  LIG   0.0981   0.1000 
29    C14      2.9380  -39.8900   21.8010 C.3     1  LIG  -0.1181  -0.2000 
30    H11      3.8890  -40.1268   21.3997 H       1  LIG   0.0732   0.1000 
31    H12      3.0430  -39.6129   22.8177 H       1  LIG   0.0789   0.1000 
32    C15      1.6390  -40.0610   21.0880 C.3     1  LIG  -0.1196  -0.2000 
33    H13      0.6832  -39.9283   21.5242 H       1  LIG   0.0807   0.1000 
34    H14      1.5292  -40.4423   20.1061 H       1  LIG   0.0733   0.1000 
@<TRIPOS>BOND
1     2     1     ar
2     3     2     1
3     4     2     ar
4     5     4     1
5     6     4     ar
6     7     6     ar
7     8     7     1
8     9     8     1
9     10    8     1
10    11    10    1
11    12    11    ar
12    13    12    1
13    14    12    ar
14    15    14    1
15    16    14    ar
16    17    16    1
17    18    16    ar
18    19    11    ar
19    19    18    ar
20    20    19    1
21    21    1     ar
22    21    7     ar
23    21    20    1
24    22    6     1
25    23    22    1
26    24    22    1
27    25    22    1
28    26    10    2
29    27    20    1
30    28    27    1
31    29    27    1
32    30    29    1
33    31    29    1
34    32    27    1
35    32    29    1
36    33    32    1
37    34    32    1
@<TRIPOS>SUBSTRUCTURE
1   LIG    1    
 
########## Name        : 1VRT.lig
########## Description : AM1BCC_CHARGES =  -0.0002 ORIGINAL_CHARGES =  -0.0000

@<TRIPOS>MOLECULE
1VRT.lig
34    37    1     0     0    
SMALL
USER_CHARGES
@<TRIPOS>ATOM
1     N1       4.0540  -36.9310   22.2210 N.ar    1  LIG  -0.6650  -0.6200 
2     C1       4.9660  -36.2380   22.9390 C.ar    1  LIG   0.3947   0.1600 
3     H1       6.0082  -36.2811   22.6707 H       1  LIG   0.0281   0.1500 
4     C2       4.6240  -35.4500   24.0360 C.ar    1  LIG  -0.2334  -0.1500 
5     H2       5.3884  -34.9151   24.5740 H       1  LIG   0.1480   0.1500 
6     C3       3.3050  -35.3690   24.4150 C.ar    1  LIG  -0.0698  -0.1435 
7     C4       2.3460  -36.0770   23.6860 C.ar    1  LIG  -0.0398   0.1170 
8     N2       0.9890  -36.0280   24.1030 N.am    1  LIG  -0.4596  -0.5470 
9     H3       0.7643  -35.9928   25.0860 H       1  LIG   0.3311   0.3700 
10    C5      -0.1450  -36.0180   23.4080 C.2     1  LIG   0.7361   0.5438 
11    C6      -0.1190  -36.0770   21.8860 C.ar    1  LIG  -0.2550   0.0862 
12    C7      -1.1230  -35.3990   21.1890 C.ar    1  LIG  -0.0321  -0.1500 
13    H4      -1.7552  -34.6955   21.7041 H       1  LIG   0.1623   0.1500 
14    C8      -1.2960  -35.6300   19.8690 C.ar    1  LIG  -0.2723  -0.1500 
15    H5      -2.0662  -35.1073   19.3273 H       1  LIG   0.1522   0.1500 
16    C9      -0.4670  -36.5450   19.2400 C.ar    1  LIG   0.4373   0.1600 
17    H6      -0.5947  -36.7554   18.1915 H       1  LIG   0.0280   0.1500 
18    N3       0.5220  -37.2120   19.8740 N.ar    1  LIG  -0.6893  -0.6200 
19    C10      0.7040  -36.9790   21.1800 C.ar    1  LIG   0.6480   0.4100 
20    N4       1.7670  -37.6730   21.8260 N.pl3   1  LIG  -0.6924  -0.3690 
21    C11      2.7540  -36.8570   22.5840 C.ar    1  LIG   0.5805   0.4100 
22    C12      2.9040  -34.5090   25.6010 C.3     1  LIG  -0.0620   0.1435 
23    H7       2.2235  -33.7630   25.2820 H       1  LIG   0.0570   0.0000 
24    H8       2.4436  -35.1154   26.3371 H       1  LIG   0.0495   0.0000 
25    H9       3.7654  -34.0491   26.0108 H       1  LIG   0.0519   0.0000 
26    O1      -1.2400  -35.9060   23.9770 O.2     1  LIG  -0.6361  -0.5700 
27    C13      2.3440  -38.7570   21.0360 C.3     1  LIG   0.1354   0.0690 
28    H10      3.1238  -38.3754   20.4296 H       1  LIG   0.0981   0.1000 
29    C14      2.9380  -39.8900   21.8010 C.3     1  LIG  -0.1181  -0.2000 
30    H11      3.8890  -40.1268   21.3997 H       1  LIG   0.0732   0.1000 
31    H12      3.0430  -39.6129   22.8177 H       1  LIG   0.0789   0.1000 
32    C15      1.6390  -40.0610   21.0880 C.3     1  LIG  -0.1196  -0.2000 
33    H13      0.6832  -39.9283   21.5242 H       1  LIG   0.0807   0.1000 
34    H14      1.5292  -40.4423   20.1061 H       1  LIG   0.0733   0.1000 
@<TRIPOS>BOND
1     2     1     ar
2     3     2     1
3     4     2     ar
4     5     4     1
5     6     4     ar
6     7     6     ar
7     8     7     1
8     9     8     1
9     10    8     1
10    11    10    1
11    12    11    ar
12    13    12    1
13    14    12    ar
14    15    14    1
15    16    14    ar
16    17    16    1
17    18    16    ar
18    19    11    ar
19    19    18    ar
20    20    19    1
21    21    1     ar
22    21    7     ar
23    21    20    1
24    22    6     1
25    23    22    1
26    24    22    1
27    25    22    1
28    26    10    2
29    27    20    1
30    28    27    1
31    29    27    1
32    30    29    1
33    31    29    1
34    32    27    1
35    32    29    1
36    33    32    1
37    34    32    1
@<TRIPOS>SUBSTRUCTURE
1   LIG    1    
 
########## Name        : 1VRT.lig
########## Description : AM1BCC_CHARGES =  -0.0002 ORIGINAL_CHARGES =  -0.0000

@<TRIPOS>MOLECULE
1VRT.lig
34    37    1     0     0    
SMALL
USER_CHARGES
@<TRIPOS>ATOM
1     N1       4.0540  -36.9310   22.2210 N.ar    1  LIG  -0.6650  -0.6200 
2     C1       4.9660  -36.2380   22.9390 C.ar    1  LIG   0.3947   0.1600 
3     H1       6.0082  -36.2811   22.6707 H       1  LIG   0.0281   0.1500 
4     C2       4.6240  -35.4500   24.0360 C.ar    1  LIG  -0.2334  -0.1500 
5     H2       5.3884  -34.9151   24.5740 H       1  LIG   0.1480   0.1500 
6     C3       3.3050  -35.3690   24.4150 C.ar    1  LIG  -0.0698  -0.1435 
7     C4       2.3460  -36.0770   23.6860 C.ar    1  LIG  -0.0398   0.1170 
8     N2       0.9890  -36.0280   24.1030 N.am    1  LIG  -0.4596  -0.5470 
9     H3       0.7643  -35.9928   25.0860 H       1  LIG   0.3311   0.3700 
10    C5      -0.1450  -36.0180   23.4080 C.2     1  LIG   0.7361   0.5438 
11    C6      -0.1190  -36.0770   21.8860 C.ar    1  LIG  -0.2550   0.0862 
12    C7      -1.1230  -35.3990   21.1890 C.ar    1  LIG  -0.0321  -0.1500 
13    H4      -1.7552  -34.6955   21.7041 H       1  LIG   0.1623   0.1500 
14    C8      -1.2960  -35.6300   19.8690 C.ar    1  LIG  -0.2723  -0.1500 
15    H5      -2.0662  -35.1073   19.3273 H       1  LIG   0.1522   0.1500 
16    C9      -0.4670  -36.5450   19.2400 C.ar    1  LIG   0.4373   0.1600 
17    H6      -0.5947  -36.7554   18.1915 H       1  LIG   0.0280   0.1500 
18    N3       0.5220  -37.2120   19.8740 N.ar    1  LIG  -0.6893  -0.6200 
19    C10      0.7040  -36.9790   21.1800 C.ar    1  LIG   0.6480   0.4100 
20    N4       1.7670  -37.6730   21.8260 N.pl3   1  LIG  -0.6924  -0.3690 
21    C11      2.7540  -36.8570   22.5840 C.ar    1  LIG   0.5805   0.4100 
22    C12      2.9040  -34.5090   25.6010 C.3     1  LIG  -0.0620   0.1435 
23    H7       2.2235  -33.7630   25.2820 H       1  LIG   0.0570   0.0000 
24    H8       2.4436  -35.1154   26.3371 H       1  LIG   0.0495   0.0000 
25    H9       3.7654  -34.0491   26.0108 H       1  LIG   0.0519   0.0000 
26    O1      -1.2400  -35.9060   23.9770 O.2     1  LIG  -0.6361  -0.5700 
27    C13      2.3440  -38.7570   21.0360 C.3     1  LIG   0.1354   0.0690 
28    H10      3.1238  -38.3754   20.4296 H       1  LIG   0.0981   0.1000 
29    C14      2.9380  -39.8900   21.8010 C.3     1  LIG  -0.1181  -0.2000 
30    H11      3.8890  -40.1268   21.3997 H       1  LIG   0.0732   0.1000 
31    H12      3.0430  -39.6129   22.8177 H       1  LIG   0.0789   0.1000 
32    C15      1.6390  -40.0610   21.0880 C.3     1  LIG  -0.1196  -0.2000 
33    H13      0.6832  -39.9283   21.5242 H       1  LIG   0.0807   0.1000 
34    H14      1.5292  -40.4423   20.1061 H       1  LIG   0.0733   0.1000 
@<TRIPOS>BOND
1     2     1     ar
2     3     2     1
3     4     2     ar
4     5     4     1
5     6     4     ar
6     7     6     ar
7     8     7     1
8     9     8     1
9     10    8     1
10    11    10    1
11    12    11    ar
12    13    12    1
13    14    12    ar
14    15    14    1
15    16    14    ar
16    17    16    1
17    18    16    ar
18    19    11    ar
19    19    18    ar
20    20    19    1
21    21    1     ar
22    21    7     ar
23    21    20    1
24    22    6     1
25    23    22    1
26    24    22    1
27    25    22    1
28    26    10    2
29    27    20    1
30    28    27    1
31    29    27    1
32    30    29    1
33    31    29    1
34    32    27    1
35    32    29    1
36    33    32    1
37    34    32    1
@<TRIPOS>SUBSTRUCTURE
1   LIG    1    
 
########## Name        : 1VRT.lig
########## Description : AM1BCC_CHARGES =  -0.0002 ORIGINAL_CHARGES =  -0.0000

@<TRIPOS>MOLECULE
1VRT.lig
34    37    1     0     0    
SMALL
USER_CHARGES
@<TRIPOS>ATOM
1     N1       4.0540  -36.9310   22.2210 N.ar    1  LIG  -0.6650  -0.6200 
2     C1       4.9660  -36.2380   22.9390 C.ar    1  LIG   0.3947   0.1600 
3     H1       6.0082  -36.2811   22.6707 H       1  LIG   0.0281   0.1500 
4     C2       4.6240  -35.4500   24.0360 C.ar    1  LIG  -0.2334  -0.1500 
5     H2       5.3884  -34.9151   24.5740 H       1  LIG   0.1480   0.1500 
6     C3       3.3050  -35.3690   24.4150 C.ar    1  LIG  -0.0698  -0.1435 
7     C4       2.3460  -36.0770   23.6860 C.ar    1  LIG  -0.0398   0.1170 
8     N2       0.9890  -36.0280   24.1030 N.am    1  LIG  -0.4596  -0.5470 
9     H3       0.7643  -35.9928   25.0860 H       1  LIG   0.3311   0.3700 
10    C5      -0.1450  -36.0180   23.4080 C.2     1  LIG   0.7361   0.5438 
11    C6      -0.1190  -36.0770   21.8860 C.ar    1  LIG  -0.2550   0.0862 
12    C7      -1.1230  -35.3990   21.1890 C.ar    1  LIG  -0.0321  -0.1500 
13    H4      -1.7552  -34.6955   21.7041 H       1  LIG   0.1623   0.1500 
14    C8      -1.2960  -35.6300   19.8690 C.ar    1  LIG  -0.2723  -0.1500 
15    H5      -2.0662  -35.1073   19.3273 H       1  LIG   0.1522   0.1500 
16    C9      -0.4670  -36.5450   19.2400 C.ar    1  LIG   0.4373   0.1600 
17    H6      -0.5947  -36.7554   18.1915 H       1  LIG   0.0280   0.1500 
18    N3       0.5220  -37.2120   19.8740 N.ar    1  LIG  -0.6893  -0.6200 
19    C10      0.7040  -36.9790   21.1800 C.ar    1  LIG   0.6480   0.4100 
20    N4       1.7670  -37.6730   21.8260 N.pl3   1  LIG  -0.6924  -0.3690 
21    C11      2.7540  -36.8570   22.5840 C.ar    1  LIG   0.5805   0.4100 
22    C12      2.9040  -34.5090   25.6010 C.3     1  LIG  -0.0620   0.1435 
23    H7       2.2235  -33.7630   25.2820 H       1  LIG   0.0570   0.0000 
24    H8       2.4436  -35.1154   26.3371 H       1  LIG   0.0495   0.0000 
25    H9       3.7654  -34.0491   26.0108 H       1  LIG   0.0519   0.0000 
26    O1      -1.2400  -35.9060   23.9770 O.2     1  LIG  -0.6361  -0.5700 
27    C13      2.3440  -38.7570   21.0360 C.3     1  LIG   0.1354   0.0690 
28    H10      3.1238  -38.3754   20.4296 H       1  LIG   0.0981   0.1000 
29    C14      2.9380  -39.8900   21.8010 C.3     1  LIG  -0.1181  -0.2000 
30    H11      3.8890  -40.1268   21.3997 H       1  LIG   0.0732   0.1000 
31    H12      3.0430  -39.6129   22.8177 H       1  LIG   0.0789   0.1000 
32    C15      1.6390  -40.0610   21.0880 C.3     1  LIG  -0.1196  -0.2000 
33    H13      0.6832  -39.9283   21.5242 H       1  LIG   0.0807   0.1000 
34    H14      1.5292  -40.4423   20.1061 H       1  LIG   0.0733   0.1000 
@<TRIPOS>BOND
1     2     1     ar
2     3     2     1
3     4     2     ar
4     5     4     1
5     6     4     ar
6     7     6     ar
7     8     7     1
8     9     8     1
9     10    8     1
10    11    10    1
11    12    11    ar
12    13    12    1
13    14    12    ar
14    15    14    1
15    16    14    ar
16    17    16    1
17    18    16    ar
18    19    11    ar
19    19    18    ar
20    20    19    1
21    21    1     ar
22    21    7     ar
23    21    20    1
24    22    6     1
25    23    22    1
26    24    22    1
27    25    22    1
28    26    10    2
29    27    20    1
30    28    27    1
31    29    27    1
32    30    29    1
33    31    29    1
34    32    27    1
35    32    29    1
36    33    32    1
37    34    32    1
@<TRIPOS>SUBSTRUCTURE
1   LIG    1    
 
########## Name        : 1VRT.lig
########## Description : AM1BCC_CHARGES =  -0.0002 ORIGINAL_CHARGES =  -0.0000

@<TRIPOS>MOLECULE
1VRT.lig
34    37    1     0     0    
SMALL
USER_CHARGES
@<TRIPOS>ATOM
1     N1       4.0540  -36.9310   22.2210 N.ar    1  LIG  -0.6650  -0.6200 
2     C1       4.9660  -36.2380   22.9390 C.ar    1  LIG   0.3947   0.1600 
3     H1       6.0082  -36.2811   22.6707 H       1  LIG   0.0281   0.1500 
4     C2       4.6240  -35.4500   24.0360 C.ar    1  LIG  -0.2334  -0.1500 
5     H2       5.3884  -34.9151   24.5740 H       1  LIG   0.1480   0.1500 
6     C3       3.3050  -35.3690   24.4150 C.ar    1  LIG  -0.0698  -0.1435 
7     C4       2.3460  -36.0770   23.6860 C.ar    1  LIG  -0.0398   0.1170 
8     N2       0.9890  -36.0280   24.1030 N.am    1  LIG  -0.4596  -0.5470 
9     H3       0.7643  -35.9928   25.0860 H       1  LIG   0.3311   0.3700 
10    C5      -0.1450  -36.0180   23.4080 C.2     1  LIG   0.7361   0.5438 
11    C6      -0.1190  -36.0770   21.8860 C.ar    1  LIG  -0.2550   0.0862 
12    C7      -1.1230  -35.3990   21.1890 C.ar    1  LIG  -0.0321  -0.1500 
13    H4      -1.7552  -34.6955   21.7041 H       1  LIG   0.1623   0.1500 
14    C8      -1.2960  -35.6300   19.8690 C.ar    1  LIG  -0.2723  -0.1500 
15    H5      -2.0662  -35.1073   19.3273 H       1  LIG   0.1522   0.1500 
16    C9      -0.4670  -36.5450   19.2400 C.ar    1  LIG   0.4373   0.1600 
17    H6      -0.5947  -36.7554   18.1915 H       1  LIG   0.0280   0.1500 
18    N3       0.5220  -37.2120   19.8740 N.ar    1  LIG  -0.6893  -0.6200 
19    C10      0.7040  -36.9790   21.1800 C.ar    1  LIG   0.6480   0.4100 
20    N4       1.7670  -37.6730   21.8260 N.pl3   1  LIG  -0.6924  -0.3690 
21    C11      2.7540  -36.8570   22.5840 C.ar    1  LIG   0.5805   0.4100 
22    C12      2.9040  -34.5090   25.6010 C.3     1  LIG  -0.0620   0.1435 
23    H7       2.2235  -33.7630   25.2820 H       1  LIG   0.0570   0.0000 
24    H8       2.4436  -35.1154   26.3371 H       1  LIG   0.0495   0.0000 
25    H9       3.7654  -34.0491   26.0108 H       1  LIG   0.0519   0.0000 
26    O1      -1.2400  -35.9060   23.9770 O.2     1  LIG  -0.6361  -0.5700 
27    C13      2.3440  -38.7570   21.0360 C.3     1  LIG   0.1354   0.0690 
28    H10      3.1238  -38.3754   20.4296 H       1  LIG   0.0981   0.1000 
29    C14      2.9380  -39.8900   21.8010 C.3     1  LIG  -0.1181  -0.2000 
30    H11      3.8890  -40.1268   21.3997 H       1  LIG   0.0732   0.1000 
31    H12      3.0430  -39.6129   22.8177 H       1  LIG   0.0789   0.1000 
32    C15      1.6390  -40.0610   21.0880 C.3     1  LIG  -0.1196  -0.2000 
33    H13      0.6832  -39.9283   21.5242 H       1  LIG   0.0807   0.1000 
34    H14      1.5292  -40.4423   20.1061 H       1  LIG   0.0733   0.1000 
@<TRIPOS>BOND
1     2     1     ar
2     3     2     1
3     4     2     ar
4     5     4     1
5     6     4     ar
6     7     6     ar
7     8     7     1
8     9     8     1
9     10    8     1
10    11    10    1
11    12    11    ar
12    13    12    1
13    14    12    ar
14    15    14    1
15    16    14    ar
16    17    16    1
17    18    16    ar
18    19    11    ar
19    19    18    ar
20    20    19    1
21    21    1     ar
22    21    7     ar
23    21    20    1
24    22    6     1
25    23    22    1
26    24    22    1
27    25    22    1
28    26    10    2
29    27    20    1
30    28    27    1
31    29    27    1
32    30    29    1
33    31    29    1
34    32    27    1
35    32    29    1
36    33    32    1
37    34    32    1
@<TRIPOS>SUBSTRUCTURE
1   LIG    1    
 
########## Name        : 1VRT.lig
########## Description : AM1BCC_CHARGES =  -0.0002 ORIGINAL_CHARGES =  -0.0000

@<TRIPOS>MOLECULE
1VRT.lig
34    37    1     0     0    
SMALL
USER_CHARGES
@<TRIPOS>ATOM
1     N1       4.0540  -36.9310   22.2210 N.ar    1  LIG  -0.6650  -0.6200 
2     C1       4.9660  -36.2380   22.9390 C.ar    1  LIG   0.3947   0.1600 
3     H1       6.0082  -36.2811   22.6707 H       1  LIG   0.0281   0.1500 
4     C2       4.6240  -35.4500   24.0360 C.ar    1  LIG  -0.2334  -0.1500 
5     H2       5.3884  -34.9151   24.5740 H       1  LIG   0.1480   0.1500 
6     C3       3.3050  -35.3690   24.4150 C.ar    1  LIG  -0.0698  -0.1435 
7     C4       2.3460  -36.0770   23.6860 C.ar    1  LIG  -0.0398   0.1170 
8     N2       0.9890  -36.0280   24.1030 N.am    1  LIG  -0.4596  -0.5470 
9     H3       0.7643  -35.9928   25.0860 H       1  LIG   0.3311   0.3700 
10    C5      -0.1450  -36.0180   23.4080 C.2     1  LIG   0.7361   0.5438 
11    C6      -0.1190  -36.0770   21.8860 C.ar    1  LIG  -0.2550   0.0862 
12    C7      -1.1230  -35.3990   21.1890 C.ar    1  LIG  -0.0321  -0.1500 
13    H4      -1.7552  -34.6955   21.7041 H       1  LIG   0.1623   0.1500 
14    C8      -1.2960  -35.6300   19.8690 C.ar    1  LIG  -0.2723  -0.1500 
15    H5      -2.0662  -35.1073   19.3273 H       1  LIG   0.1522   0.1500 
16    C9      -0.4670  -36.5450   19.2400 C.ar    1  LIG   0.4373   0.1600 
17    H6      -0.5947  -36.7554   18.1915 H       1  LIG   0.0280   0.1500 
18    N3       0.5220  -37.2120   19.8740 N.ar    1  LIG  -0.6893  -0.6200 
19    C10      0.7040  -36.9790   21.1800 C.ar    1  LIG   0.6480   0.4100 
20    N4       1.7670  -37.6730   21.8260 N.pl3   1  LIG  -0.6924  -0.3690 
21    C11      2.7540  -36.8570   22.5840 C.ar    1  LIG   0.5805   0.4100 
22    C12      2.9040  -34.5090   25.6010 C.3     1  LIG  -0.0620   0.1435 
23    H7       2.2235  -33.7630   25.2820 H       1  LIG   0.0570   0.0000 
24    H8       2.4436  -35.1154   26.3371 H       1  LIG   0.0495   0.0000 
25    H9       3.7654  -34.0491   26.0108 H       1  LIG   0.0519   0.0000 
26    O1      -1.2400  -35.9060   23.9770 O.2     1  LIG  -0.6361  -0.5700 
27    C13      2.3440  -38.7570   21.0360 C.3     1  LIG   0.1354   0.0690 
28    H10      3.1238  -38.3754   20.4296 H       1  LIG   0.0981   0.1000 
29    C14      2.9380  -39.8900   21.8010 C.3     1  LIG  -0.1181  -0.2000 
30    H11      3.8890  -40.1268   21.3997 H       1  LIG   0.0732   0.1000 
31    H12      3.0430  -39.6129   22.8177 H       1  LIG   0.0789   0.1000 
32    C15      1.6390  -40.0610   21.0880 C.3     1  LIG  -0.1196  -0.2000 
33    H13      0.6832  -39.9283   21.5242 H       1  LIG   0.0807   0.1000 
34    H14      1.5292  -40.4423   20.1061 H       1  LIG   0.0733   0.1000 
@<TRIPOS>BOND
1     2     1     ar
2     3     2     1
3     4     2     ar
4     5     4     1
5     6     4     ar
6     7     6     ar
7     8     7     1
8     9     8     1
9     10    8     1
10    11    10    1
11    12    11    ar
12    13    12    1
13    14    12    ar
14    15    14    1
15    16    14    ar
16    17    16    1
17    18    16    ar
18    19    11    ar
19    19    18    ar
20    20    19    1
21    21    1     ar
22    21    7     ar
23    21    20    1
24    22    6     1
25    23    22    1
26    24    22    1
27    25    22    1
28    26    10    2
29    27    20    1
30    28    27    1
31    29    27    1
32    30    29    1
33    31    29    1
34    32    27    1
35    32    29    1
36    33    32    1
37    34    32    1
@<TRIPOS>SUBSTRUCTURE
1   LIG    1    
 
########## Name        : 1VRT.lig
########## Description : AM1BCC_CHARGES =  -0.0002 ORIGINAL_CHARGES =  -0.0000

@<TRIPOS>MOLECULE
1VRT.lig
34    37    1     0     0    
SMALL
USER_CHARGES
@<TRIPOS>ATOM
1     N1       4.0540  -36.9310   22.2210 N.ar    1  LIG  -0.6650  -0.6200 
2     C1       4.9660  -36.2380   22.9390 C.ar    1  LIG   0.3947   0.1600 
3     H1       6.0082  -36.2811   22.6707 H       1  LIG   0.0281   0.1500 
4     C2       4.6240  -35.4500   24.0360 C.ar    1  LIG  -0.2334  -0.1500 
5     H2       5.3884  -34.9151   24.5740 H       1  LIG   0.1480   0.1500 
6     C3       3.3050  -35.3690   24.4150 C.ar    1  LIG  -0.0698  -0.1435 
7     C4       2.3460  -36.0770   23.6860 C.ar    1  LIG  -0.0398   0.1170 
8     N2       0.9890  -36.0280   24.1030 N.am    1  LIG  -0.4596  -0.5470 
9     H3       0.7643  -35.9928   25.0860 H       1  LIG   0.3311   0.3700 
10    C5      -0.1450  -36.0180   23.4080 C.2     1  LIG   0.7361   0.5438 
11    C6      -0.1190  -36.0770   21.8860 C.ar    1  LIG  -0.2550   0.0862 
12    C7      -1.1230  -35.3990   21.1890 C.ar    1  LIG  -0.0321  -0.1500 
13    H4      -1.7552  -34.6955   21.7041 H       1  LIG   0.1623   0.1500 
14    C8      -1.2960  -35.6300   19.8690 C.ar    1  LIG  -0.2723  -0.1500 
15    H5      -2.0662  -35.1073   19.3273 H       1  LIG   0.1522   0.1500 
16    C9      -0.4670  -36.5450   19.2400 C.ar    1  LIG   0.4373   0.1600 
17    H6      -0.5947  -36.7554   18.1915 H       1  LIG   0.0280   0.1500 
18    N3       0.5220  -37.2120   19.8740 N.ar    1  LIG  -0.6893  -0.6200 
19    C10      0.7040  -36.9790   21.1800 C.ar    1  LIG   0.6480   0.4100 
20    N4       1.7670  -37.6730   21.8260 N.pl3   1  LIG  -0.6924  -0.3690 
21    C11      2.7540  -36.8570   22.5840 C.ar    1  LIG   0.5805   0.4100 
22    C12      2.9040  -34.5090   25.6010 C.3     1  LIG  -0.0620   0.1435 
23    H7       2.2235  -33.7630   25.2820 H       1  LIG   0.0570   0.0000 
24    H8       2.4436  -35.1154   26.3371 H       1  LIG   0.0495   0.0000 
25    H9       3.7654  -34.0491   26.0108 H       1  LIG   0.0519   0.0000 
26    O1      -1.2400  -35.9060   23.9770 O.2     1  LIG  -0.6361  -0.5700 
27    C13      2.3440  -38.7570   21.0360 C.3     1  LIG   0.1354   0.0690 
28    H10      3.1238  -38.3754   20.4296 H       1  LIG   0.0981   0.1000 
29    C14      2.9380  -39.8900   21.8010 C.3     1  LIG  -0.1181  -0.2000 
30    H11      3.8890  -40.1268   21.3997 H       1  LIG   0.0732   0.1000 
31    H12      3.0430  -39.6129   22.8177 H       1  LIG   0.0789   0.1000 
32    C15      1.6390  -40.0610   21.0880 C.3     1  LIG  -0.1196  -0.2000 
33    H13      0.6832  -39.9283   21.5242 H       1  LIG   0.0807   0.1000 
34    H14      1.5292  -40.4423   20.1061 H       1  LIG   0.0733   0.1000 
@<TRIPOS>BOND
1     2     1     ar
2     3     2     1
3     4     2     ar
4     5     4     1
5     6     4     ar
6     7     6     ar
7     8     7     1
8     9     8     1
9     10    8     1
10    11    10    1
11    12    11    ar
12    13    12    1
13    14    12    ar
14    15    14    1
15    16    14    ar
16    17    16    1
17    18    16    ar
18    19    11    ar
19    19    18    ar
20    20    19    1
21    21    1     ar
22    21    7     ar
23    21    20    1
24    22    6     1
25    23    22    1
26    24    22    1
27    25    22    1
28    26    10    2
29    27    20    1
30    28    27    1
31    29    27    1
32    30    29    1
33    31    29    1
34    32    27    1
35    32    29    1
36    33    32    1
37    34    32    1
@<TRIPOS>SUBSTRUCTURE
1   LIG    1    
 
########## Name        : 1VRT.lig
########## Description : AM1BCC_CHARGES =  -0.0002 ORIGINAL_CHARGES =  -0.0000

@<TRIPOS>MOLECULE
1VRT.lig
34    37    1     0     0    
SMALL
USER_CHARGES
@<TRIPOS>ATOM
1     N1       4.0540  -36.9310   22.2210 N.ar    1  LIG  -0.6650  -0.6200 
2     C1       4.9660  -36.2380   22.9390 C.ar    1  LIG   0.3947   0.1600 
3     H1       6.0082  -36.2811   22.6707 H       1  LIG   0.0281   0.1500 
4     C2       4.6240  -35.4500   24.0360 C.ar    1  LIG  -0.2334  -0.1500 
5     H2       5.3884  -34.9151   24.5740 H       1  LIG   0.1480   0.1500 
6     C3       3.3050  -35.3690   24.4150 C.ar    1  LIG  -0.0698  -0.1435 
7     C4       2.3460  -36.0770   23.6860 C.ar    1  LIG  -0.0398   0.1170 
8     N2       0.9890  -36.0280   24.1030 N.am    1  LIG  -0.4596  -0.5470 
9     H3       0.7643  -35.9928   25.0860 H       1  LIG   0.3311   0.3700 
10    C5      -0.1450  -36.0180   23.4080 C.2     1  LIG   0.7361   0.5438 
11    C6      -0.1190  -36.0770   21.8860 C.ar    1  LIG  -0.2550   0.0862 
12    C7      -1.1230  -35.3990   21.1890 C.ar    1  LIG  -0.0321  -0.1500 
13    H4      -1.7552  -34.6955   21.7041 H       1  LIG   0.1623   0.1500 
14    C8      -1.2960  -35.6300   19.8690 C.ar    1  LIG  -0.2723  -0.1500 
15    H5      -2.0662  -35.1073   19.3273 H       1  LIG   0.1522   0.1500 
16    C9      -0.4670  -36.5450   19.2400 C.ar    1  LIG   0.4373   0.1600 
17    H6      -0.5947  -36.7554   18.1915 H       1  LIG   0.0280   0.1500 
18    N3       0.5220  -37.2120   19.8740 N.ar    1  LIG  -0.6893  -0.6200 
19    C10      0.7040  -36.9790   21.1800 C.ar    1  LIG   0.6480   0.4100 
20    N4       1.7670  -37.6730   21.8260 N.pl3   1  LIG  -0.6924  -0.3690 
21    C11      2.7540  -36.8570   22.5840 C.ar    1  LIG   0.5805   0.4100 
22    C12      2.9040  -34.5090   25.6010 C.3     1  LIG  -0.0620   0.1435 
23    H7       2.2235  -33.7630   25.2820 H       1  LIG   0.0570   0.0000 
24    H8       2.4436  -35.1154   26.3371 H       1  LIG   0.0495   0.0000 
25    H9       3.7654  -34.0491   26.0108 H       1  LIG   0.0519   0.0000 
26    O1      -1.2400  -35.9060   23.9770 O.2     1  LIG  -0.6361  -0.5700 
27    C13      2.3440  -38.7570   21.0360 C.3     1  LIG   0.1354   0.0690 
28    H10      3.1238  -38.3754   20.4296 H       1  LIG   0.0981   0.1000 
29    C14      2.9380  -39.8900   21.8010 C.3     1  LIG  -0.1181  -0.2000 
30    H11      3.8890  -40.1268   21.3997 H       1  LIG   0.0732   0.1000 
31    H12      3.0430  -39.6129   22.8177 H       1  LIG   0.0789   0.1000 
32    C15      1.6390  -40.0610   21.0880 C.3     1  LIG  -0.1196  -0.2000 
33    H13      0.6832  -39.9283   21.5242 H       1  LIG   0.0807   0.1000 
34    H14      1.5292  -40.4423   20.1061 H       1  LIG   0.0733   0.1000 
@<TRIPOS>BOND
1     2     1     ar
2     3     2     1
3     4     2     ar
4     5     4     1
5     6     4     ar
6     7     6     ar
7     8     7     1
8     9     8     1
9     10    8     1
10    11    10    1
11    12    11    ar
12    13    12    1
13    14    12    ar
14    15    14    1
15    16    14    ar
16    17    16    1
17    18    16    ar
18    19    11    ar
19    19    18    ar
20    20    19    1
21    21    1     ar
22    21    7     ar
23    21    20    1
24    22    6     1
25    23    22    1
26    24    22    1
27    25    22    1
28    26    10    2
29    27    20    1
30    28    27    1
31    29    27    1
32    30    29    1
33    31    29    1
34    32    27    1
35    32    29    1
36    33    32    1
37    34    32    1
@<TRIPOS>SUBSTRUCTURE
1   LIG    1    
 
########## Name        : 1VRT.lig
########## Description : AM1BCC_CHARGES =  -0.0002 ORIGINAL_CHARGES =  -0.0000

@<TRIPOS>MOLECULE
1VRT.lig
34    37    1     0     0    
SMALL
USER_CHARGES
@<TRIPOS>ATOM
1     N1       4.0540  -36.9310   22.2210 N.ar    1  LIG  -0.6650  -0.6200 
2     C1       4.9660  -36.2380   22.9390 C.ar    1  LIG   0.3947   0.1600 
3     H1       6.0082  -36.2811   22.6707 H       1  LIG   0.0281   0.1500 
4     C2       4.6240  -35.4500   24.0360 C.ar    1  LIG  -0.2334  -0.1500 
5     H2       5.3884  -34.9151   24.5740 H       1  LIG   0.1480   0.1500 
6     C3       3.3050  -35.3690   24.4150 C.ar    1  LIG  -0.0698  -0.1435 
7     C4       2.3460  -36.0770   23.6860 C.ar    1  LIG  -0.0398   0.1170 
8     N2       0.9890  -36.0280   24.1030 N.am    1  LIG  -0.4596  -0.5470 
9     H3       0.7643  -35.9928   25.0860 H       1  LIG   0.3311   0.3700 
10    C5      -0.1450  -36.0180   23.4080 C.2     1  LIG   0.7361   0.5438 
11    C6      -0.1190  -36.0770   21.8860 C.ar    1  LIG  -0.2550   0.0862 
12    C7      -1.1230  -35.3990   21.1890 C.ar    1  LIG  -0.0321  -0.1500 
13    H4      -1.7552  -34.6955   21.7041 H       1  LIG   0.1623   0.1500 
14    C8      -1.2960  -35.6300   19.8690 C.ar    1  LIG  -0.2723  -0.1500 
15    H5      -2.0662  -35.1073   19.3273 H       1  LIG   0.1522   0.1500 
16    C9      -0.4670  -36.5450   19.2400 C.ar    1  LIG   0.4373   0.1600 
17    H6      -0.5947  -36.7554   18.1915 H       1  LIG   0.0280   0.1500 
18    N3       0.5220  -37.2120   19.8740 N.ar    1  LIG  -0.6893  -0.6200 
19    C10      0.7040  -36.9790   21.1800 C.ar    1  LIG   0.6480   0.4100 
20    N4       1.7670  -37.6730   21.8260 N.pl3   1  LIG  -0.6924  -0.3690 
21    C11      2.7540  -36.8570   22.5840 C.ar    1  LIG   0.5805   0.4100 
22    C12      2.9040  -34.5090   25.6010 C.3     1  LIG  -0.0620   0.1435 
23    H7       2.2235  -33.7630   25.2820 H       1  LIG   0.0570   0.0000 
24    H8       2.4436  -35.1154   26.3371 H       1  LIG   0.0495   0.0000 
25    H9       3.7654  -34.0491   26.0108 H       1  LIG   0.0519   0.0000 
26    O1      -1.2400  -35.9060   23.9770 O.2     1  LIG  -0.6361  -0.5700 
27    C13      2.3440  -38.7570   21.0360 C.3     1  LIG   0.1354   0.0690 
28    H10      3.1238  -38.3754   20.4296 H       1  LIG   0.0981   0.1000 
29    C14      2.9380  -39.8900   21.8010 C.3     1  LIG  -0.1181  -0.2000 
30    H11      3.8890  -40.1268   21.3997 H       1  LIG   0.0732   0.1000 
31    H12      3.0430  -39.6129   22.8177 H       1  LIG   0.0789   0.1000 
32    C15      1.6390  -40.0610   21.0880 C.3     1  LIG  -0.1196  -0.2000 
33    H13      0.6832  -39.9283   21.5242 H       1  LIG   0.0807   0.1000 
34    H14      1.5292  -40.4423   20.1061 H       1  LIG   0.0733   0.1000 
@<TRIPOS>BOND
1     2     1     ar
2     3     2     1
3     4     2     ar
4     5     4     1
5     6     4     ar
6     7     6     ar
7     8     7     1
8     9     8     1
9     10    8     1
10    11    10    1
11    12    11    ar
12    13    12    1
13    14    12    ar
14    15    14    1
15    16    14    ar
16    17    16    1
17    18    16    ar
18    19    11    ar
19    19    18    ar
20    20    19    1
21    21    1     ar
22    21    7     ar
23    21    20    1
24    22    6     1
25    23    22    1
26    24    22    1
27    25    22    1
28    26    10    2
29    27    20    1
30    28    27    1
31    29    27    1
32    30    29    1
33    31    29    1
34    32    27    1
35    32    29    1
36    33    32    1
37    34    32    1
@<TRIPOS>SUBSTRUCTURE
1   LIG    1    
 
########## Name        : 1VRT.lig
########## Description : AM1BCC_CHARGES =  -0.0002 ORIGINAL_CHARGES =  -0.0000

@<TRIPOS>MOLECULE
1VRT.lig
34    37    1     0     0    
SMALL
USER_CHARGES
@<TRIPOS>ATOM
1     N1       4.0540  -36.9310   22.2210 N.ar    1  LIG  -0.6650  -0.6200 
2     C1       4.9660  -36.2380   22.9390 C.ar    1  LIG   0.3947   0.1600 
3     H1       6.0082  -36.2811   22.6707 H       1  LIG   0.0281   0.1500 
4     C2       4.6240  -35.4500   24.0360 C.ar    1  LIG  -0.2334  -0.1500 
5     H2       5.3884  -34.9151   24.5740 H       1  LIG   0.1480   0.1500 
6     C3       3.3050  -35.3690   24.4150 C.ar    1  LIG  -0.0698  -0.1435 
7     C4       2.3460  -36.0770   23.6860 C.ar    1  LIG  -0.0398   0.1170 
8     N2       0.9890  -36.0280   24.1030 N.am    1  LIG  -0.4596  -0.5470 
9     H3       0.7643  -35.9928   25.0860 H       1  LIG   0.3311   0.3700 
10    C5      -0.1450  -36.0180   23.4080 C.2     1  LIG   0.7361   0.5438 
11    C6      -0.1190  -36.0770   21.8860 C.ar    1  LIG  -0.2550   0.0862 
12    C7      -1.1230  -35.3990   21.1890 C.ar    1  LIG  -0.0321  -0.1500 
13    H4      -1.7552  -34.6955   21.7041 H       1  LIG   0.1623   0.1500 
14    C8      -1.2960  -35.6300   19.8690 C.ar    1  LIG  -0.2723  -0.1500 
15    H5      -2.0662  -35.1073   19.3273 H       1  LIG   0.1522   0.1500 
16    C9      -0.4670  -36.5450   19.2400 C.ar    1  LIG   0.4373   0.1600 
17    H6      -0.5947  -36.7554   18.1915 H       1  LIG   0.0280   0.1500 
18    N3       0.5220  -37.2120   19.8740 N.ar    1  LIG  -0.6893  -0.6200 
19    C10      0.7040  -36.9790   21.1800 C.ar    1  LIG   0.6480   0.4100 
20    N4       1.7670  -37.6730   21.8260 N.pl3   1  LIG  -0.6924  -0.3690 
21    C11      2.7540  -36.8570   22.5840 C.ar    1  LIG   0.5805   0.4100 
22    C12      2.9040  -34.5090   25.6010 C.3     1  LIG  -0.0620   0.1435 
23    H7       2.2235  -33.7630   25.2820 H       1  LIG   0.0570   0.0000 
24    H8       2.4436  -35.1154   26.3371 H       1  LIG   0.0495   0.0000 
25    H9       3.7654  -34.0491   26.0108 H       1  LIG   0.0519   0.0000 
26    O1      -1.2400  -35.9060   23.9770 O.2     1  LIG  -0.6361  -0.5700 
27    C13      2.3440  -38.7570   21.0360 C.3     1  LIG   0.1354   0.0690 
28    H10      3.1238  -38.3754   20.4296 H       1  LIG   0.0981   0.1000 
29    C14      2.9380  -39.8900   21.8010 C.3     1  LIG  -0.1181  -0.2000 
30    H11      3.8890  -40.1268   21.3997 H       1  LIG   0.0732   0.1000 
31    H12      3.0430  -39.6129   22.8177 H       1  LIG   0.0789   0.1000 
32    C15      1.6390  -40.0610   21.0880 C.3     1  LIG  -0.1196  -0.2000 
33    H13      0.6832  -39.9283   21.5242 H       1  LIG   0.0807   0.1000 
34    H14      1.5292  -40.4423   20.1061 H       1  LIG   0.0733   0.1000 
@<TRIPOS>BOND
1     2     1     ar
2     3     2     1
3     4     2     ar
4     5     4     1
5     6     4     ar
6     7     6     ar
7     8     7     1
8     9     8     1
9     10    8     1
10    11    10    1
11    12    11    ar
12    13    12    1
13    14    12    ar
14    15    14    1
15    16    14    ar
16    17    16    1
17    18    16    ar
18    19    11    ar
19    19    18    ar
20    20    19    1
21    21    1     ar
22    21    7     ar
23    21    20    1
24    22    6     1
25    23    22    1
26    24    22    1
27    25    22    1
28    26    10    2
29    27    20    1
30    28    27    1
31    29    27    1
32    30    29    1
33    31    29    1
34    32    27    1
35    32    29    1
36    33    32    1
37    34    32    1
@<TRIPOS>SUBSTRUCTURE
1   LIG    1    
 
########## Name        : 1VRT.lig
########## Description : AM1BCC_CHARGES =  -0.0002 ORIGINAL_CHARGES =  -0.0000

@<TRIPOS>MOLECULE
1VRT.lig
34    37    1     0     0    
SMALL
USER_CHARGES
@<TRIPOS>ATOM
1     N1       4.0540  -36.9310   22.2210 N.ar    1  LIG  -0.6650  -0.6200 
2     C1       4.9660  -36.2380   22.9390 C.ar    1  LIG   0.3947   0.1600 
3     H1       6.0082  -36.2811   22.6707 H       1  LIG   0.0281   0.1500 
4     C2       4.6240  -35.4500   24.0360 C.ar    1  LIG  -0.2334  -0.1500 
5     H2       5.3884  -34.9151   24.5740 H       1  LIG   0.1480   0.1500 
6     C3       3.3050  -35.3690   24.4150 C.ar    1  LIG  -0.0698  -0.1435 
7     C4       2.3460  -36.0770   23.6860 C.ar    1  LIG  -0.0398   0.1170 
8     N2       0.9890  -36.0280   24.1030 N.am    1  LIG  -0.4596  -0.5470 
9     H3       0.7643  -35.9928   25.0860 H       1  LIG   0.3311   0.3700 
10    C5      -0.1450  -36.0180   23.4080 C.2     1  LIG   0.7361   0.5438 
11    C6      -0.1190  -36.0770   21.8860 C.ar    1  LIG  -0.2550   0.0862 
12    C7      -1.1230  -35.3990   21.1890 C.ar    1  LIG  -0.0321  -0.1500 
13    H4      -1.7552  -34.6955   21.7041 H       1  LIG   0.1623   0.1500 
14    C8      -1.2960  -35.6300   19.8690 C.ar    1  LIG  -0.2723  -0.1500 
15    H5      -2.0662  -35.1073   19.3273 H       1  LIG   0.1522   0.1500 
16    C9      -0.4670  -36.5450   19.2400 C.ar    1  LIG   0.4373   0.1600 
17    H6      -0.5947  -36.7554   18.1915 H       1  LIG   0.0280   0.1500 
18    N3       0.5220  -37.2120   19.8740 N.ar    1  LIG  -0.6893  -0.6200 
19    C10      0.7040  -36.9790   21.1800 C.ar    1  LIG   0.6480   0.4100 
20    N4       1.7670  -37.6730   21.8260 N.pl3   1  LIG  -0.6924  -0.3690 
21    C11      2.7540  -36.8570   22.5840 C.ar    1  LIG   0.5805   0.4100 
22    C12      2.9040  -34.5090   25.6010 C.3     1  LIG  -0.0620   0.1435 
23    H7       2.2235  -33.7630   25.2820 H       1  LIG   0.0570   0.0000 
24    H8       2.4436  -35.1154   26.3371 H       1  LIG   0.0495   0.0000 
25    H9       3.7654  -34.0491   26.0108 H       1  LIG   0.0519   0.0000 
26    O1      -1.2400  -35.9060   23.9770 O.2     1  LIG  -0.6361  -0.5700 
27    C13      2.3440  -38.7570   21.0360 C.3     1  LIG   0.1354   0.0690 
28    H10      3.1238  -38.3754   20.4296 H       1  LIG   0.0981   0.1000 
29    C14      2.9380  -39.8900   21.8010 C.3     1  LIG  -0.1181  -0.2000 
30    H11      3.8890  -40.1268   21.3997 H       1  LIG   0.0732   0.1000 
31    H12      3.0430  -39.6129   22.8177 H       1  LIG   0.0789   0.1000 
32    C15      1.6390  -40.0610   21.0880 C.3     1  LIG  -0.1196  -0.2000 
33    H13      0.6832  -39.9283   21.5242 H       1  LIG   0.0807   0.1000 
34    H14      1.5292  -40.4423   20.1061 H       1  LIG   0.0733   0.1000 
@<TRIPOS>BOND
1     2     1     ar
2     3     2     1
3     4     2     ar
4     5     4     1
5     6     4     ar
6     7     6     ar
7     8     7     1
8     9     8     1
9     10    8     1
10    11    10    1
11    12    11    ar
12    13    12    1
13    14    12    ar
14    15    14    1
15    16    14    ar
16    17    16    1
17    18    16    ar
18    19    11    ar
19    19    18    ar
20    20    19    1
21    21    1     ar
22    21    7     ar
23    21    20    1
24    22    6     1
25    23    22    1
26    24    22    1
27    25    22    1
28    26    10    2
29    27    20    1
30    28    27    1
31    29    27    1
32    30    29    1
33    31    29    1
34    32    27    1
35    32    29    1
36    33    32    1
37    34    32    1
@<TRIPOS>SUBSTRUCTURE
1   LIG    1    
 
########## Name        : 1VRT.lig
########## Description : AM1BCC_CHARGES =  -0.0002 ORIGINAL_CHARGES =  -0.0000

@<TRIPOS>MOLECULE
1VRT.lig
34    37    1     0     0    
SMALL
USER_CHARGES
@<TRIPOS>ATOM
1     N1       4.0540  -36.9310   22.2210 N.ar    1  LIG  -0.6650  -0.6200 
2     C1       4.9660  -36.2380   22.9390 C.ar    1  LIG   0.3947   0.1600 
3     H1       6.0082  -36.2811   22.6707 H       1  LIG   0.0281   0.1500 
4     C2       4.6240  -35.4500   24.0360 C.ar    1  LIG  -0.2334  -0.1500 
5     H2       5.3884  -34.9151   24.5740 H       1  LIG   0.1480   0.1500 
6     C3       3.3050  -35.3690   24.4150 C.ar    1  LIG  -0.0698  -0.1435 
7     C4       2.3460  -36.0770   23.6860 C.ar    1  LIG  -0.0398   0.1170 
8     N2       0.9890  -36.0280   24.1030 N.am    1  LIG  -0.4596  -0.5470 
9     H3       0.7643  -35.9928   25.0860 H       1  LIG   0.3311   0.3700 
10    C5      -0.1450  -36.0180   23.4080 C.2     1  LIG   0.7361   0.5438 
11    C6      -0.1190  -36.0770   21.8860 C.ar    1  LIG  -0.2550   0.0862 
12    C7      -1.1230  -35.3990   21.1890 C.ar    1  LIG  -0.0321  -0.1500 
13    H4      -1.7552  -34.6955   21.7041 H       1  LIG   0.1623   0.1500 
14    C8      -1.2960  -35.6300   19.8690 C.ar    1  LIG  -0.2723  -0.1500 
15    H5      -2.0662  -35.1073   19.3273 H       1  LIG   0.1522   0.1500 
16    C9      -0.4670  -36.5450   19.2400 C.ar    1  LIG   0.4373   0.1600 
17    H6      -0.5947  -36.7554   18.1915 H       1  LIG   0.0280   0.1500 
18    N3       0.5220  -37.2120   19.8740 N.ar    1  LIG  -0.6893  -0.6200 
19    C10      0.7040  -36.9790   21.1800 C.ar    1  LIG   0.6480   0.4100 
20    N4       1.7670  -37.6730   21.8260 N.pl3   1  LIG  -0.6924  -0.3690 
21    C11      2.7540  -36.8570   22.5840 C.ar    1  LIG   0.5805   0.4100 
22    C12      2.9040  -34.5090   25.6010 C.3     1  LIG  -0.0620   0.1435 
23    H7       2.2235  -33.7630   25.2820 H       1  LIG   0.0570   0.0000 
24    H8       2.4436  -35.1154   26.3371 H       1  LIG   0.0495   0.0000 
25    H9       3.7654  -34.0491   26.0108 H       1  LIG   0.0519   0.0000 
26    O1      -1.2400  -35.9060   23.9770 O.2     1  LIG  -0.6361  -0.5700 
27    C13      2.3440  -38.7570   21.0360 C.3     1  LIG   0.1354   0.0690 
28    H10      3.1238  -38.3754   20.4296 H       1  LIG   0.0981   0.1000 
29    C14      2.9380  -39.8900   21.8010 C.3     1  LIG  -0.1181  -0.2000 
30    H11      3.8890  -40.1268   21.3997 H       1  LIG   0.0732   0.1000 
31    H12      3.0430  -39.6129   22.8177 H       1  LIG   0.0789   0.1000 
32    C15      1.6390  -40.0610   21.0880 C.3     1  LIG  -0.1196  -0.2000 
33    H13      0.6832  -39.9283   21.5242 H       1  LIG   0.0807   0.1000 
34    H14      1.5292  -40.4423   20.1061 H       1  LIG   0.0733   0.1000 
@<TRIPOS>BOND
1     2     1     ar
2     3     2     1
3     4     2     ar
4     5     4     1
5     6     4     ar
6     7     6     ar
7     8     7     1
8     9     8     1
9     10    8     1
10    11    10    1
11    12    11    ar
12    13    12    1
13    14    12    ar
14    15    14    1
15    16    14    ar
16    17    16    1
17    18    16    ar
18    19    11    ar
19    19    18    ar
20    20    19    1
21    21    1     ar
22    21    7     ar
23    21    20    1
24    22    6     1
25    23    22    1
26    24    22    1
27    25    22    1
28    26    10    2
29    27    20    1
30    28    27    1
31    29    27    1
32    30    29    1
33    31    29    1
34    32    27    1
35    32    29    1
36    33    32    1
37    34    32    1
@<TRIPOS>SUBSTRUCTURE
1   LIG    1    
 
########## Name        : 1VRT.lig
########## Description : AM1BCC_CHARGES =  -0.0002 ORIGINAL_CHARGES =  -0.0000

@<TRIPOS>MOLECULE
1VRT.lig
34    37    1     0     0    
SMALL
USER_CHARGES
@<TRIPOS>ATOM
1     N1       4.0540  -36.9310   22.2210 N.ar    1  LIG  -0.6650  -0.6200 
2     C1       4.9660  -36.2380   22.9390 C.ar    1  LIG   0.3947   0.1600 
3     H1       6.0082  -36.2811   22.6707 H       1  LIG   0.0281   0.1500 
4     C2       4.6240  -35.4500   24.0360 C.ar    1  LIG  -0.2334  -0.1500 
5     H2       5.3884  -34.9151   24.5740 H       1  LIG   0.1480   0.1500 
6     C3       3.3050  -35.3690   24.4150 C.ar    1  LIG  -0.0698  -0.1435 
7     C4       2.3460  -36.0770   23.6860 C.ar    1  LIG  -0.0398   0.1170 
8     N2       0.9890  -36.0280   24.1030 N.am    1  LIG  -0.4596  -0.5470 
9     H3       0.7643  -35.9928   25.0860 H       1  LIG   0.3311   0.3700 
10    C5      -0.1450  -36.0180   23.4080 C.2     1  LIG   0.7361   0.5438 
11    C6      -0.1190  -36.0770   21.8860 C.ar    1  LIG  -0.2550   0.0862 
12    C7      -1.1230  -35.3990   21.1890 C.ar    1  LIG  -0.0321  -0.1500 
13    H4      -1.7552  -34.6955   21.7041 H       1  LIG   0.1623   0.1500 
14    C8      -1.2960  -35.6300   19.8690 C.ar    1  LIG  -0.2723  -0.1500 
15    H5      -2.0662  -35.1073   19.3273 H       1  LIG   0.1522   0.1500 
16    C9      -0.4670  -36.5450   19.2400 C.ar    1  LIG   0.4373   0.1600 
17    H6      -0.5947  -36.7554   18.1915 H       1  LIG   0.0280   0.1500 
18    N3       0.5220  -37.2120   19.8740 N.ar    1  LIG  -0.6893  -0.6200 
19    C10      0.7040  -36.9790   21.1800 C.ar    1  LIG   0.6480   0.4100 
20    N4       1.7670  -37.6730   21.8260 N.pl3   1  LIG  -0.6924  -0.3690 
21    C11      2.7540  -36.8570   22.5840 C.ar    1  LIG   0.5805   0.4100 
22    C12      2.9040  -34.5090   25.6010 C.3     1  LIG  -0.0620   0.1435 
23    H7       2.2235  -33.7630   25.2820 H       1  LIG   0.0570   0.0000 
24    H8       2.4436  -35.1154   26.3371 H       1  LIG   0.0495   0.0000 
25    H9       3.7654  -34.0491   26.0108 H       1  LIG   0.0519   0.0000 
26    O1      -1.2400  -35.9060   23.9770 O.2     1  LIG  -0.6361  -0.5700 
27    C13      2.3440  -38.7570   21.0360 C.3     1  LIG   0.1354   0.0690 
28    H10      3.1238  -38.3754   20.4296 H       1  LIG   0.0981   0.1000 
29    C14      2.9380  -39.8900   21.8010 C.3     1  LIG  -0.1181  -0.2000 
30    H11      3.8890  -40.1268   21.3997 H       1  LIG   0.0732   0.1000 
31    H12      3.0430  -39.6129   22.8177 H       1  LIG   0.0789   0.1000 
32    C15      1.6390  -40.0610   21.0880 C.3     1  LIG  -0.1196  -0.2000 
33    H13      0.6832  -39.9283   21.5242 H       1  LIG   0.0807   0.1000 
34    H14      1.5292  -40.4423   20.1061 H       1  LIG   0.0733   0.1000 
@<TRIPOS>BOND
1     2     1     ar
2     3     2     1
3     4     2     ar
4     5     4     1
5     6     4     ar
6     7     6     ar
7     8     7     1
8     9     8     1
9     10    8     1
10    11    10    1
11    12    11    ar
12    13    12    1
13    14    12    ar
14    15    14    1
15    16    14    ar
16    17    16    1
17    18    16    ar
18    19    11    ar
19    19    18    ar
20    20    19    1
21    21    1     ar
22    21    7     ar
23    21    20    1
24    22    6     1
25    23    22    1
26    24    22    1
27    25    22    1
28    26    10    2
29    27    20    1
30    28    27    1
31    29    27    1
32    30    29    1
33    31    29    1
34    32    27    1
35    32    29    1
36    33    32    1
37    34    32    1
@<TRIPOS>SUBSTRUCTURE
1   LIG    1    
 
########## Name        : 1VRT.lig
########## Description : AM1BCC_CHARGES =  -0.0002 ORIGINAL_CHARGES =  -0.0000

@<TRIPOS>MOLECULE
1VRT.lig
34    37    1     0     0    
SMALL
USER_CHARGES
@<TRIPOS>ATOM
1     N1       4.0540  -36.9310   22.2210 N.ar    1  LIG  -0.6650  -0.6200 
2     C1       4.9660  -36.2380   22.9390 C.ar    1  LIG   0.3947   0.1600 
3     H1       6.0082  -36.2811   22.6707 H       1  LIG   0.0281   0.1500 
4     C2       4.6240  -35.4500   24.0360 C.ar    1  LIG  -0.2334  -0.1500 
5     H2       5.3884  -34.9151   24.5740 H       1  LIG   0.1480   0.1500 
6     C3       3.3050  -35.3690   24.4150 C.ar    1  LIG  -0.0698  -0.1435 
7     C4       2.3460  -36.0770   23.6860 C.ar    1  LIG  -0.0398   0.1170 
8     N2       0.9890  -36.0280   24.1030 N.am    1  LIG  -0.4596  -0.5470 
9     H3       0.7643  -35.9928   25.0860 H       1  LIG   0.3311   0.3700 
10    C5      -0.1450  -36.0180   23.4080 C.2     1  LIG   0.7361   0.5438 
11    C6      -0.1190  -36.0770   21.8860 C.ar    1  LIG  -0.2550   0.0862 
12    C7      -1.1230  -35.3990   21.1890 C.ar    1  LIG  -0.0321  -0.1500 
13    H4      -1.7552  -34.6955   21.7041 H       1  LIG   0.1623   0.1500 
14    C8      -1.2960  -35.6300   19.8690 C.ar    1  LIG  -0.2723  -0.1500 
15    H5      -2.0662  -35.1073   19.3273 H       1  LIG   0.1522   0.1500 
16    C9      -0.4670  -36.5450   19.2400 C.ar    1  LIG   0.4373   0.1600 
17    H6      -0.5947  -36.7554   18.1915 H       1  LIG   0.0280   0.1500 
18    N3       0.5220  -37.2120   19.8740 N.ar    1  LIG  -0.6893  -0.6200 
19    C10      0.7040  -36.9790   21.1800 C.ar    1  LIG   0.6480   0.4100 
20    N4       1.7670  -37.6730   21.8260 N.pl3   1  LIG  -0.6924  -0.3690 
21    C11      2.7540  -36.8570   22.5840 C.ar    1  LIG   0.5805   0.4100 
22    C12      2.9040  -34.5090   25.6010 C.3     1  LIG  -0.0620   0.1435 
23    H7       2.2235  -33.7630   25.2820 H       1  LIG   0.0570   0.0000 
24    H8       2.4436  -35.1154   26.3371 H       1  LIG   0.0495   0.0000 
25    H9       3.7654  -34.0491   26.0108 H       1  LIG   0.0519   0.0000 
26    O1      -1.2400  -35.9060   23.9770 O.2     1  LIG  -0.6361  -0.5700 
27    C13      2.3440  -38.7570   21.0360 C.3     1  LIG   0.1354   0.0690 
28    H10      3.1238  -38.3754   20.4296 H       1  LIG   0.0981   0.1000 
29    C14      2.9380  -39.8900   21.8010 C.3     1  LIG  -0.1181  -0.2000 
30    H11      3.8890  -40.1268   21.3997 H       1  LIG   0.0732   0.1000 
31    H12      3.0430  -39.6129   22.8177 H       1  LIG   0.0789   0.1000 
32    C15      1.6390  -40.0610   21.0880 C.3     1  LIG  -0.1196  -0.2000 
33    H13      0.6832  -39.9283   21.5242 H       1  LIG   0.0807   0.1000 
34    H14      1.5292  -40.4423   20.1061 H       1  LIG   0.0733   0.1000 
@<TRIPOS>BOND
1     2     1     ar
2     3     2     1
3     4     2     ar
4     5     4     1
5     6     4     ar
6     7     6     ar
7     8     7     1
8     9     8     1
9     10    8     1
10    11    10    1
11    12    11    ar
12    13    12    1
13    14    12    ar
14    15    14    1
15    16    14    ar
16    17    16    1
17    18    16    ar
18    19    11    ar
19    19    18    ar
20    20    19    1
21    21    1     ar
22    21    7     ar
23    21    20    1
24    22    6     1
25    23    22    1
26    24    22    1
27    25    22    1
28    26    10    2
29    27    20    1
30    28    27    1
31    29    27    1
32    30    29    1
33    31    29    1
34    32    27    1
35    32    29    1
36    33    32    1
37    34    32    1
@<TRIPOS>SUBSTRUCTURE
1   LIG    1    
 
########## Name        : 1VRT.lig
########## Description : AM1BCC_CHARGES =  -0.0002 ORIGINAL_CHARGES =  -0.0000

@<TRIPOS>MOLECULE
1VRT.lig
34    37    1     0     0    
SMALL
USER_CHARGES
@<TRIPOS>ATOM
1     N1       4.0540  -36.9310   22.2210 N.ar    1  LIG  -0.6650  -0.6200 
2     C1       4.9660  -36.2380   22.9390 C.ar    1  LIG   0.3947   0.1600 
3     H1       6.0082  -36.2811   22.6707 H       1  LIG   0.0281   0.1500 
4     C2       4.6240  -35.4500   24.0360 C.ar    1  LIG  -0.2334  -0.1500 
5     H2       5.3884  -34.9151   24.5740 H       1  LIG   0.1480   0.1500 
6     C3       3.3050  -35.3690   24.4150 C.ar    1  LIG  -0.0698  -0.1435 
7     C4       2.3460  -36.0770   23.6860 C.ar    1  LIG  -0.0398   0.1170 
8     N2       0.9890  -36.0280   24.1030 N.am    1  LIG  -0.4596  -0.5470 
9     H3       0.7643  -35.9928   25.0860 H       1  LIG   0.3311   0.3700 
10    C5      -0.1450  -36.0180   23.4080 C.2     1  LIG   0.7361   0.5438 
11    C6      -0.1190  -36.0770   21.8860 C.ar    1  LIG  -0.2550   0.0862 
12    C7      -1.1230  -35.3990   21.1890 C.ar    1  LIG  -0.0321  -0.1500 
13    H4      -1.7552  -34.6955   21.7041 H       1  LIG   0.1623   0.1500 
14    C8      -1.2960  -35.6300   19.8690 C.ar    1  LIG  -0.2723  -0.1500 
15    H5      -2.0662  -35.1073   19.3273 H       1  LIG   0.1522   0.1500 
16    C9      -0.4670  -36.5450   19.2400 C.ar    1  LIG   0.4373   0.1600 
17    H6      -0.5947  -36.7554   18.1915 H       1  LIG   0.0280   0.1500 
18    N3       0.5220  -37.2120   19.8740 N.ar    1  LIG  -0.6893  -0.6200 
19    C10      0.7040  -36.9790   21.1800 C.ar    1  LIG   0.6480   0.4100 
20    N4       1.7670  -37.6730   21.8260 N.pl3   1  LIG  -0.6924  -0.3690 
21    C11      2.7540  -36.8570   22.5840 C.ar    1  LIG   0.5805   0.4100 
22    C12      2.9040  -34.5090   25.6010 C.3     1  LIG  -0.0620   0.1435 
23    H7       2.2235  -33.7630   25.2820 H       1  LIG   0.0570   0.0000 
24    H8       2.4436  -35.1154   26.3371 H       1  LIG   0.0495   0.0000 
25    H9       3.7654  -34.0491   26.0108 H       1  LIG   0.0519   0.0000 
26    O1      -1.2400  -35.9060   23.9770 O.2     1  LIG  -0.6361  -0.5700 
27    C13      2.3440  -38.7570   21.0360 C.3     1  LIG   0.1354   0.0690 
28    H10      3.1238  -38.3754   20.4296 H       1  LIG   0.0981   0.1000 
29    C14      2.9380  -39.8900   21.8010 C.3     1  LIG  -0.1181  -0.2000 
30    H11      3.8890  -40.1268   21.3997 H       1  LIG   0.0732   0.1000 
31    H12      3.0430  -39.6129   22.8177 H       1  LIG   0.0789   0.1000 
32    C15      1.6390  -40.0610   21.0880 C.3     1  LIG  -0.1196  -0.2000 
33    H13      0.6832  -39.9283   21.5242 H       1  LIG   0.0807   0.1000 
34    H14      1.5292  -40.4423   20.1061 H       1  LIG   0.0733   0.1000 
@<TRIPOS>BOND
1     2     1     ar
2     3     2     1
3     4     2     ar
4     5     4     1
5     6     4     ar
6     7     6     ar
7     8     7     1
8     9     8     1
9     10    8     1
10    11    10    1
11    12    11    ar
12    13    12    1
13    14    12    ar
14    15    14    1
15    16    14    ar
16    17    16    1
17    18    16    ar
18    19    11    ar
19    19    18    ar
20    20    19    1
21    21    1     ar
22    21    7     ar
23    21    20    1
24    22    6     1
25    23    22    1
26    24    22    1
27    25    22    1
28    26    10    2
29    27    20    1
30    28    27    1
31    29    27    1
32    30    29    1
33    31    29    1
34    32    27    1
35    32    29    1
36    33    32    1
37    34    32    1
@<TRIPOS>SUBSTRUCTURE
1   LIG    1    
 
########## Name        : 1VRT.lig
########## Description : AM1BCC_CHARGES =  -0.0002 ORIGINAL_CHARGES =  -0.0000

@<TRIPOS>MOLECULE
1VRT.lig
34    37    1     0     0    
SMALL
USER_CHARGES
@<TRIPOS>ATOM
1     N1       4.0540  -36.9310   22.2210 N.ar    1  LIG  -0.6650  -0.6200 
2     C1       4.9660  -36.2380   22.9390 C.ar    1  LIG   0.3947   0.1600 
3     H1       6.0082  -36.2811   22.6707 H       1  LIG   0.0281   0.1500 
4     C2       4.6240  -35.4500   24.0360 C.ar    1  LIG  -0.2334  -0.1500 
5     H2       5.3884  -34.9151   24.5740 H       1  LIG   0.1480   0.1500 
6     C3       3.3050  -35.3690   24.4150 C.ar    1  LIG  -0.0698  -0.1435 
7     C4       2.3460  -36.0770   23.6860 C.ar    1  LIG  -0.0398   0.1170 
8     N2       0.9890  -36.0280   24.1030 N.am    1  LIG  -0.4596  -0.5470 
9     H3       0.7643  -35.9928   25.0860 H       1  LIG   0.3311   0.3700 
10    C5      -0.1450  -36.0180   23.4080 C.2     1  LIG   0.7361   0.5438 
11    C6      -0.1190  -36.0770   21.8860 C.ar    1  LIG  -0.2550   0.0862 
12    C7      -1.1230  -35.3990   21.1890 C.ar    1  LIG  -0.0321  -0.1500 
13    H4      -1.7552  -34.6955   21.7041 H       1  LIG   0.1623   0.1500 
14    C8      -1.2960  -35.6300   19.8690 C.ar    1  LIG  -0.2723  -0.1500 
15    H5      -2.0662  -35.1073   19.3273 H       1  LIG   0.1522   0.1500 
16    C9      -0.4670  -36.5450   19.2400 C.ar    1  LIG   0.4373   0.1600 
17    H6      -0.5947  -36.7554   18.1915 H       1  LIG   0.0280   0.1500 
18    N3       0.5220  -37.2120   19.8740 N.ar    1  LIG  -0.6893  -0.6200 
19    C10      0.7040  -36.9790   21.1800 C.ar    1  LIG   0.6480   0.4100 
20    N4       1.7670  -37.6730   21.8260 N.pl3   1  LIG  -0.6924  -0.3690 
21    C11      2.7540  -36.8570   22.5840 C.ar    1  LIG   0.5805   0.4100 
22    C12      2.9040  -34.5090   25.6010 C.3     1  LIG  -0.0620   0.1435 
23    H7       2.2235  -33.7630   25.2820 H       1  LIG   0.0570   0.0000 
24    H8       2.4436  -35.1154   26.3371 H       1  LIG   0.0495   0.0000 
25    H9       3.7654  -34.0491   26.0108 H       1  LIG   0.0519   0.0000 
26    O1      -1.2400  -35.9060   23.9770 O.2     1  LIG  -0.6361  -0.5700 
27    C13      2.3440  -38.7570   21.0360 C.3     1  LIG   0.1354   0.0690 
28    H10      3.1238  -38.3754   20.4296 H       1  LIG   0.0981   0.1000 
29    C14      2.9380  -39.8900   21.8010 C.3     1  LIG  -0.1181  -0.2000 
30    H11      3.8890  -40.1268   21.3997 H       1  LIG   0.0732   0.1000 
31    H12      3.0430  -39.6129   22.8177 H       1  LIG   0.0789   0.1000 
32    C15      1.6390  -40.0610   21.0880 C.3     1  LIG  -0.1196  -0.2000 
33    H13      0.6832  -39.9283   21.5242 H       1  LIG   0.0807   0.1000 
34    H14      1.5292  -40.4423   20.1061 H       1  LIG   0.0733   0.1000 
@<TRIPOS>BOND
1     2     1     ar
2     3     2     1
3     4     2     ar
4     5     4     1
5     6     4     ar
6     7     6     ar
7     8     7     1
8     9     8     1
9     10    8     1
10    11    10    1
11    12    11    ar
12    13    12    1
13    14    12    ar
14    15    14    1
15    16    14    ar
16    17    16    1
17    18    16    ar
18    19    11    ar
19    19    18    ar
20    20    19    1
21    21    1     ar
22    21    7     ar
23    21    20    1
24    22    6     1
25    23    22    1
26    24    22    1
27    25    22    1
28    26    10    2
29    27    20    1
30    28    27    1
31    29    27    1
32    30    29    1
33    31    29    1
34    32    27    1
35    32    29    1
36    33    32    1
37    34    32    1
@<TRIPOS>SUBSTRUCTURE
1   LIG    1    
 
########## Name        : 1VRT.lig
########## Description : AM1BCC_CHARGES =  -0.0002 ORIGINAL_CHARGES =  -0.0000

@<TRIPOS>MOLECULE
1VRT.lig
34    37    1     0     0    
SMALL
USER_CHARGES
@<TRIPOS>ATOM
1     N1       4.0540  -36.9310   22.2210 N.ar    1  LIG  -0.6650  -0.6200 
2     C1       4.9660  -36.2380   22.9390 C.ar    1  LIG   0.3947   0.1600 
3     H1       6.0082  -36.2811   22.6707 H       1  LIG   0.0281   0.1500 
4     C2       4.6240  -35.4500   24.0360 C.ar    1  LIG  -0.2334  -0.1500 
5     H2       5.3884  -34.9151   24.5740 H       1  LIG   0.1480   0.1500 
6     C3       3.3050  -35.3690   24.4150 C.ar    1  LIG  -0.0698  -0.1435 
7     C4       2.3460  -36.0770   23.6860 C.ar    1  LIG  -0.0398   0.1170 
8     N2       0.9890  -36.0280   24.1030 N.am    1  LIG  -0.4596  -0.5470 
9     H3       0.7643  -35.9928   25.0860 H       1  LIG   0.3311   0.3700 
10    C5      -0.1450  -36.0180   23.4080 C.2     1  LIG   0.7361   0.5438 
11    C6      -0.1190  -36.0770   21.8860 C.ar    1  LIG  -0.2550   0.0862 
12    C7      -1.1230  -35.3990   21.1890 C.ar    1  LIG  -0.0321  -0.1500 
13    H4      -1.7552  -34.6955   21.7041 H       1  LIG   0.1623   0.1500 
14    C8      -1.2960  -35.6300   19.8690 C.ar    1  LIG  -0.2723  -0.1500 
15    H5      -2.0662  -35.1073   19.3273 H       1  LIG   0.1522   0.1500 
16    C9      -0.4670  -36.5450   19.2400 C.ar    1  LIG   0.4373   0.1600 
17    H6      -0.5947  -36.7554   18.1915 H       1  LIG   0.0280   0.1500 
18    N3       0.5220  -37.2120   19.8740 N.ar    1  LIG  -0.6893  -0.6200 
19    C10      0.7040  -36.9790   21.1800 C.ar    1  LIG   0.6480   0.4100 
20    N4       1.7670  -37.6730   21.8260 N.pl3   1  LIG  -0.6924  -0.3690 
21    C11      2.7540  -36.8570   22.5840 C.ar    1  LIG   0.5805   0.4100 
22    C12      2.9040  -34.5090   25.6010 C.3     1  LIG  -0.0620   0.1435 
23    H7       2.2235  -33.7630   25.2820 H       1  LIG   0.0570   0.0000 
24    H8       2.4436  -35.1154   26.3371 H       1  LIG   0.0495   0.0000 
25    H9       3.7654  -34.0491   26.0108 H       1  LIG   0.0519   0.0000 
26    O1      -1.2400  -35.9060   23.9770 O.2     1  LIG  -0.6361  -0.5700 
27    C13      2.3440  -38.7570   21.0360 C.3     1  LIG   0.1354   0.0690 
28    H10      3.1238  -38.3754   20.4296 H       1  LIG   0.0981   0.1000 
29    C14      2.9380  -39.8900   21.8010 C.3     1  LIG  -0.1181  -0.2000 
30    H11      3.8890  -40.1268   21.3997 H       1  LIG   0.0732   0.1000 
31    H12      3.0430  -39.6129   22.8177 H       1  LIG   0.0789   0.1000 
32    C15      1.6390  -40.0610   21.0880 C.3     1  LIG  -0.1196  -0.2000 
33    H13      0.6832  -39.9283   21.5242 H       1  LIG   0.0807   0.1000 
34    H14      1.5292  -40.4423   20.1061 H       1  LIG   0.0733   0.1000 
@<TRIPOS>BOND
1     2     1     ar
2     3     2     1
3     4     2     ar
4     5     4     1
5     6     4     ar
6     7     6     ar
7     8     7     1
8     9     8     1
9     10    8     1
10    11    10    1
11    12    11    ar
12    13    12    1
13    14    12    ar
14    15    14    1
15    16    14    ar
16    17    16    1
17    18    16    ar
18    19    11    ar
19    19    18    ar
20    20    19    1
21    21    1     ar
22    21    7     ar
23    21    20    1
24    22    6     1
25    23    22    1
26    24    22    1
27    25    22    1
28    26    10    2
29    27    20    1
30    28    27    1
31    29    27    1
32    30    29    1
33    31    29    1
34    32    27    1
35    32    29    1
36    33    32    1
37    34    32    1
@<TRIPOS>SUBSTRUCTURE
1   LIG    1    
 
########## Name        : 1VRT.lig
########## Description : AM1BCC_CHARGES =  -0.0002 ORIGINAL_CHARGES =  -0.0000

@<TRIPOS>MOLECULE
1VRT.lig
34    37    1     0     0    
SMALL
USER_CHARGES
@<TRIPOS>ATOM
1     N1       4.0540  -36.9310   22.2210 N.ar    1  LIG  -0.6650  -0.6200 
2     C1       4.9660  -36.2380   22.9390 C.ar    1  LIG   0.3947   0.1600 
3     H1       6.0082  -36.2811   22.6707 H       1  LIG   0.0281   0.1500 
4     C2       4.6240  -35.4500   24.0360 C.ar    1  LIG  -0.2334  -0.1500 
5     H2       5.3884  -34.9151   24.5740 H       1  LIG   0.1480   0.1500 
6     C3       3.3050  -35.3690   24.4150 C.ar    1  LIG  -0.0698  -0.1435 
7     C4       2.3460  -36.0770   23.6860 C.ar    1  LIG  -0.0398   0.1170 
8     N2       0.9890  -36.0280   24.1030 N.am    1  LIG  -0.4596  -0.5470 
9     H3       0.7643  -35.9928   25.0860 H       1  LIG   0.3311   0.3700 
10    C5      -0.1450  -36.0180   23.4080 C.2     1  LIG   0.7361   0.5438 
11    C6      -0.1190  -36.0770   21.8860 C.ar    1  LIG  -0.2550   0.0862 
12    C7      -1.1230  -35.3990   21.1890 C.ar    1  LIG  -0.0321  -0.1500 
13    H4      -1.7552  -34.6955   21.7041 H       1  LIG   0.1623   0.1500 
14    C8      -1.2960  -35.6300   19.8690 C.ar    1  LIG  -0.2723  -0.1500 
15    H5      -2.0662  -35.1073   19.3273 H       1  LIG   0.1522   0.1500 
16    C9      -0.4670  -36.5450   19.2400 C.ar    1  LIG   0.4373   0.1600 
17    H6      -0.5947  -36.7554   18.1915 H       1  LIG   0.0280   0.1500 
18    N3       0.5220  -37.2120   19.8740 N.ar    1  LIG  -0.6893  -0.6200 
19    C10      0.7040  -36.9790   21.1800 C.ar    1  LIG   0.6480   0.4100 
20    N4       1.7670  -37.6730   21.8260 N.pl3   1  LIG  -0.6924  -0.3690 
21    C11      2.7540  -36.8570   22.5840 C.ar    1  LIG   0.5805   0.4100 
22    C12      2.9040  -34.5090   25.6010 C.3     1  LIG  -0.0620   0.1435 
23    H7       2.2235  -33.7630   25.2820 H       1  LIG   0.0570   0.0000 
24    H8       2.4436  -35.1154   26.3371 H       1  LIG   0.0495   0.0000 
25    H9       3.7654  -34.0491   26.0108 H       1  LIG   0.0519   0.0000 
26    O1      -1.2400  -35.9060   23.9770 O.2     1  LIG  -0.6361  -0.5700 
27    C13      2.3440  -38.7570   21.0360 C.3     1  LIG   0.1354   0.0690 
28    H10      3.1238  -38.3754   20.4296 H       1  LIG   0.0981   0.1000 
29    C14      2.9380  -39.8900   21.8010 C.3     1  LIG  -0.1181  -0.2000 
30    H11      3.8890  -40.1268   21.3997 H       1  LIG   0.0732   0.1000 
31    H12      3.0430  -39.6129   22.8177 H       1  LIG   0.0789   0.1000 
32    C15      1.6390  -40.0610   21.0880 C.3     1  LIG  -0.1196  -0.2000 
33    H13      0.6832  -39.9283   21.5242 H       1  LIG   0.0807   0.1000 
34    H14      1.5292  -40.4423   20.1061 H       1  LIG   0.0733   0.1000 
@<TRIPOS>BOND
1     2     1     ar
2     3     2     1
3     4     2     ar
4     5     4     1
5     6     4     ar
6     7     6     ar
7     8     7     1
8     9     8     1
9     10    8     1
10    11    10    1
11    12    11    ar
12    13    12    1
13    14    12    ar
14    15    14    1
15    16    14    ar
16    17    16    1
17    18    16    ar
18    19    11    ar
19    19    18    ar
20    20    19    1
21    21    1     ar
22    21    7     ar
23    21    20    1
24    22    6     1
25    23    22    1
26    24    22    1
27    25    22    1
28    26    10    2
29    27    20    1
30    28    27    1
31    29    27    1
32    30    29    1
33    31    29    1
34    32    27    1
35    32    29    1
36    33    32    1
37    34    32    1
@<TRIPOS>SUBSTRUCTURE
1   LIG    1    
 
########## Name        : 1VRT.lig
########## Description : AM1BCC_CHARGES =  -0.0002 ORIGINAL_CHARGES =  -0.0000

@<TRIPOS>MOLECULE
1VRT.lig
34    37    1     0     0    
SMALL
USER_CHARGES
@<TRIPOS>ATOM
1     N1       4.0540  -36.9310   22.2210 N.ar    1  LIG  -0.6650  -0.6200 
2     C1       4.9660  -36.2380   22.9390 C.ar    1  LIG   0.3947   0.1600 
3     H1       6.0082  -36.2811   22.6707 H       1  LIG   0.0281   0.1500 
4     C2       4.6240  -35.4500   24.0360 C.ar    1  LIG  -0.2334  -0.1500 
5     H2       5.3884  -34.9151   24.5740 H       1  LIG   0.1480   0.1500 
6     C3       3.3050  -35.3690   24.4150 C.ar    1  LIG  -0.0698  -0.1435 
7     C4       2.3460  -36.0770   23.6860 C.ar    1  LIG  -0.0398   0.1170 
8     N2       0.9890  -36.0280   24.1030 N.am    1  LIG  -0.4596  -0.5470 
9     H3       0.7643  -35.9928   25.0860 H       1  LIG   0.3311   0.3700 
10    C5      -0.1450  -36.0180   23.4080 C.2     1  LIG   0.7361   0.5438 
11    C6      -0.1190  -36.0770   21.8860 C.ar    1  LIG  -0.2550   0.0862 
12    C7      -1.1230  -35.3990   21.1890 C.ar    1  LIG  -0.0321  -0.1500 
13    H4      -1.7552  -34.6955   21.7041 H       1  LIG   0.1623   0.1500 
14    C8      -1.2960  -35.6300   19.8690 C.ar    1  LIG  -0.2723  -0.1500 
15    H5      -2.0662  -35.1073   19.3273 H       1  LIG   0.1522   0.1500 
16    C9      -0.4670  -36.5450   19.2400 C.ar    1  LIG   0.4373   0.1600 
17    H6      -0.5947  -36.7554   18.1915 H       1  LIG   0.0280   0.1500 
18    N3       0.5220  -37.2120   19.8740 N.ar    1  LIG  -0.6893  -0.6200 
19    C10      0.7040  -36.9790   21.1800 C.ar    1  LIG   0.6480   0.4100 
20    N4       1.7670  -37.6730   21.8260 N.pl3   1  LIG  -0.6924  -0.3690 
21    C11      2.7540  -36.8570   22.5840 C.ar    1  LIG   0.5805   0.4100 
22    C12      2.9040  -34.5090   25.6010 C.3     1  LIG  -0.0620   0.1435 
23    H7       2.2235  -33.7630   25.2820 H       1  LIG   0.0570   0.0000 
24    H8       2.4436  -35.1154   26.3371 H       1  LIG   0.0495   0.0000 
25    H9       3.7654  -34.0491   26.0108 H       1  LIG   0.0519   0.0000 
26    O1      -1.2400  -35.9060   23.9770 O.2     1  LIG  -0.6361  -0.5700 
27    C13      2.3440  -38.7570   21.0360 C.3     1  LIG   0.1354   0.0690 
28    H10      3.1238  -38.3754   20.4296 H       1  LIG   0.0981   0.1000 
29    C14      2.9380  -39.8900   21.8010 C.3     1  LIG  -0.1181  -0.2000 
30    H11      3.8890  -40.1268   21.3997 H       1  LIG   0.0732   0.1000 
31    H12      3.0430  -39.6129   22.8177 H       1  LIG   0.0789   0.1000 
32    C15      1.6390  -40.0610   21.0880 C.3     1  LIG  -0.1196  -0.2000 
33    H13      0.6832  -39.9283   21.5242 H       1  LIG   0.0807   0.1000 
34    H14      1.5292  -40.4423   20.1061 H       1  LIG   0.0733   0.1000 
@<TRIPOS>BOND
1     2     1     ar
2     3     2     1
3     4     2     ar
4     5     4     1
5     6     4     ar
6     7     6     ar
7     8     7     1
8     9     8     1
9     10    8     1
10    11    10    1
11    12    11    ar
12    13    12    1
13    14    12    ar
14    15    14    1
15    16    14    ar
16    17    16    1
17    18    16    ar
18    19    11    ar
19    19    18    ar
20    20    19    1
21    21    1     ar
22    21    7     ar
23    21    20    1
24    22    6     1
25    23    22    1
26    24    22    1
27    25    22    1
28    26    10    2
29    27    20    1
30    28    27    1
31    29    27    1
32    30    29    1
33    31    29    1
34    32    27    1
35    32    29    1
36    33    32    1
37    34    32    1
@<TRIPOS>SUBSTRUCTURE
1   LIG    1    
 
########## Name        : 1VRT.lig
########## Description : AM1BCC_CHARGES =  -0.0002 ORIGINAL_CHARGES =  -0.0000

@<TRIPOS>MOLECULE
1VRT.lig
34    37    1     0     0    
SMALL
USER_CHARGES
@<TRIPOS>ATOM
1     N1       4.0540  -36.9310   22.2210 N.ar    1  LIG  -0.6650  -0.6200 
2     C1       4.9660  -36.2380   22.9390 C.ar    1  LIG   0.3947   0.1600 
3     H1       6.0082  -36.2811   22.6707 H       1  LIG   0.0281   0.1500 
4     C2       4.6240  -35.4500   24.0360 C.ar    1  LIG  -0.2334  -0.1500 
5     H2       5.3884  -34.9151   24.5740 H       1  LIG   0.1480   0.1500 
6     C3       3.3050  -35.3690   24.4150 C.ar    1  LIG  -0.0698  -0.1435 
7     C4       2.3460  -36.0770   23.6860 C.ar    1  LIG  -0.0398   0.1170 
8     N2       0.9890  -36.0280   24.1030 N.am    1  LIG  -0.4596  -0.5470 
9     H3       0.7643  -35.9928   25.0860 H       1  LIG   0.3311   0.3700 
10    C5      -0.1450  -36.0180   23.4080 C.2     1  LIG   0.7361   0.5438 
11    C6      -0.1190  -36.0770   21.8860 C.ar    1  LIG  -0.2550   0.0862 
12    C7      -1.1230  -35.3990   21.1890 C.ar    1  LIG  -0.0321  -0.1500 
13    H4      -1.7552  -34.6955   21.7041 H       1  LIG   0.1623   0.1500 
14    C8      -1.2960  -35.6300   19.8690 C.ar    1  LIG  -0.2723  -0.1500 
15    H5      -2.0662  -35.1073   19.3273 H       1  LIG   0.1522   0.1500 
16    C9      -0.4670  -36.5450   19.2400 C.ar    1  LIG   0.4373   0.1600 
17    H6      -0.5947  -36.7554   18.1915 H       1  LIG   0.0280   0.1500 
18    N3       0.5220  -37.2120   19.8740 N.ar    1  LIG  -0.6893  -0.6200 
19    C10      0.7040  -36.9790   21.1800 C.ar    1  LIG   0.6480   0.4100 
20    N4       1.7670  -37.6730   21.8260 N.pl3   1  LIG  -0.6924  -0.3690 
21    C11      2.7540  -36.8570   22.5840 C.ar    1  LIG   0.5805   0.4100 
22    C12      2.9040  -34.5090   25.6010 C.3     1  LIG  -0.0620   0.1435 
23    H7       2.2235  -33.7630   25.2820 H       1  LIG   0.0570   0.0000 
24    H8       2.4436  -35.1154   26.3371 H       1  LIG   0.0495   0.0000 
25    H9       3.7654  -34.0491   26.0108 H       1  LIG   0.0519   0.0000 
26    O1      -1.2400  -35.9060   23.9770 O.2     1  LIG  -0.6361  -0.5700 
27    C13      2.3440  -38.7570   21.0360 C.3     1  LIG   0.1354   0.0690 
28    H10      3.1238  -38.3754   20.4296 H       1  LIG   0.0981   0.1000 
29    C14      2.9380  -39.8900   21.8010 C.3     1  LIG  -0.1181  -0.2000 
30    H11      3.8890  -40.1268   21.3997 H       1  LIG   0.0732   0.1000 
31    H12      3.0430  -39.6129   22.8177 H       1  LIG   0.0789   0.1000 
32    C15      1.6390  -40.0610   21.0880 C.3     1  LIG  -0.1196  -0.2000 
33    H13      0.6832  -39.9283   21.5242 H       1  LIG   0.0807   0.1000 
34    H14      1.5292  -40.4423   20.1061 H       1  LIG   0.0733   0.1000 
@<TRIPOS>BOND
1     2     1     ar
2     3     2     1
3     4     2     ar
4     5     4     1
5     6     4     ar
6     7     6     ar
7     8     7     1
8     9     8     1
9     10    8     1
10    11    10    1
11    12    11    ar
12    13    12    1
13    14    12    ar
14    15    14    1
15    16    14    ar
16    17    16    1
17    18    16    ar
18    19    11    ar
19    19    18    ar
20    20    19    1
21    21    1     ar
22    21    7     ar
23    21    20    1
24    22    6     1
25    23    22    1
26    24    22    1
27    25    22    1
28    26    10    2
29    27    20    1
30    28    27    1
31    29    27    1
32    30    29    1
33    31    29    1
34    32    27    1
35    32    29    1
36    33    32    1
37    34    32    1
@<TRIPOS>SUBSTRUCTURE
1   LIG    1    
 
########## Name        : 1VRT.lig
########## Description : AM1BCC_CHARGES =  -0.0002 ORIGINAL_CHARGES =  -0.0000

@<TRIPOS>MOLECULE
1VRT.lig
34    37    1     0     0    
SMALL
USER_CHARGES
@<TRIPOS>ATOM
1     N1       4.0540  -36.9310   22.2210 N.ar    1  LIG  -0.6650  -0.6200 
2     C1       4.9660  -36.2380   22.9390 C.ar    1  LIG   0.3947   0.1600 
3     H1       6.0082  -36.2811   22.6707 H       1  LIG   0.0281   0.1500 
4     C2       4.6240  -35.4500   24.0360 C.ar    1  LIG  -0.2334  -0.1500 
5     H2       5.3884  -34.9151   24.5740 H       1  LIG   0.1480   0.1500 
6     C3       3.3050  -35.3690   24.4150 C.ar    1  LIG  -0.0698  -0.1435 
7     C4       2.3460  -36.0770   23.6860 C.ar    1  LIG  -0.0398   0.1170 
8     N2       0.9890  -36.0280   24.1030 N.am    1  LIG  -0.4596  -0.5470 
9     H3       0.7643  -35.9928   25.0860 H       1  LIG   0.3311   0.3700 
10    C5      -0.1450  -36.0180   23.4080 C.2     1  LIG   0.7361   0.5438 
11    C6      -0.1190  -36.0770   21.8860 C.ar    1  LIG  -0.2550   0.0862 
12    C7      -1.1230  -35.3990   21.1890 C.ar    1  LIG  -0.0321  -0.1500 
13    H4      -1.7552  -34.6955   21.7041 H       1  LIG   0.1623   0.1500 
14    C8      -1.2960  -35.6300   19.8690 C.ar    1  LIG  -0.2723  -0.1500 
15    H5      -2.0662  -35.1073   19.3273 H       1  LIG   0.1522   0.1500 
16    C9      -0.4670  -36.5450   19.2400 C.ar    1  LIG   0.4373   0.1600 
17    H6      -0.5947  -36.7554   18.1915 H       1  LIG   0.0280   0.1500 
18    N3       0.5220  -37.2120   19.8740 N.ar    1  LIG  -0.6893  -0.6200 
19    C10      0.7040  -36.9790   21.1800 C.ar    1  LIG   0.6480   0.4100 
20    N4       1.7670  -37.6730   21.8260 N.pl3   1  LIG  -0.6924  -0.3690 
21    C11      2.7540  -36.8570   22.5840 C.ar    1  LIG   0.5805   0.4100 
22    C12      2.9040  -34.5090   25.6010 C.3     1  LIG  -0.0620   0.1435 
23    H7       2.2235  -33.7630   25.2820 H       1  LIG   0.0570   0.0000 
24    H8       2.4436  -35.1154   26.3371 H       1  LIG   0.0495   0.0000 
25    H9       3.7654  -34.0491   26.0108 H       1  LIG   0.0519   0.0000 
26    O1      -1.2400  -35.9060   23.9770 O.2     1  LIG  -0.6361  -0.5700 
27    C13      2.3440  -38.7570   21.0360 C.3     1  LIG   0.1354   0.0690 
28    H10      3.1238  -38.3754   20.4296 H       1  LIG   0.0981   0.1000 
29    C14      2.9380  -39.8900   21.8010 C.3     1  LIG  -0.1181  -0.2000 
30    H11      3.8890  -40.1268   21.3997 H       1  LIG   0.0732   0.1000 
31    H12      3.0430  -39.6129   22.8177 H       1  LIG   0.0789   0.1000 
32    C15      1.6390  -40.0610   21.0880 C.3     1  LIG  -0.1196  -0.2000 
33    H13      0.6832  -39.9283   21.5242 H       1  LIG   0.0807   0.1000 
34    H14      1.5292  -40.4423   20.1061 H       1  LIG   0.0733   0.1000 
@<TRIPOS>BOND
1     2     1     ar
2     3     2     1
3     4     2     ar
4     5     4     1
5     6     4     ar
6     7     6     ar
7     8     7     1
8     9     8     1
9     10    8     1
10    11    10    1
11    12    11    ar
12    13    12    1
13    14    12    ar
14    15    14    1
15    16    14    ar
16    17    16    1
17    18    16    ar
18    19    11    ar
19    19    18    ar
20    20    19    1
21    21    1     ar
22    21    7     ar
23    21    20    1
24    22    6     1
25    23    22    1
26    24    22    1
27    25    22    1
28    26    10    2
29    27    20    1
30    28    27    1
31    29    27    1
32    30    29    1
33    31    29    1
34    32    27    1
35    32    29    1
36    33    32    1
37    34    32    1
@<TRIPOS>SUBSTRUCTURE
1   LIG    1    
 
########## Name        : 1VRT.lig
########## Description : AM1BCC_CHARGES =  -0.0002 ORIGINAL_CHARGES =  -0.0000

@<TRIPOS>MOLECULE
1VRT.lig
34    37    1     0     0    
SMALL
USER_CHARGES
@<TRIPOS>ATOM
1     N1       4.0540  -36.9310   22.2210 N.ar    1  LIG  -0.6650  -0.6200 
2     C1       4.9660  -36.2380   22.9390 C.ar    1  LIG   0.3947   0.1600 
3     H1       6.0082  -36.2811   22.6707 H       1  LIG   0.0281   0.1500 
4     C2       4.6240  -35.4500   24.0360 C.ar    1  LIG  -0.2334  -0.1500 
5     H2       5.3884  -34.9151   24.5740 H       1  LIG   0.1480   0.1500 
6     C3       3.3050  -35.3690   24.4150 C.ar    1  LIG  -0.0698  -0.1435 
7     C4       2.3460  -36.0770   23.6860 C.ar    1  LIG  -0.0398   0.1170 
8     N2       0.9890  -36.0280   24.1030 N.am    1  LIG  -0.4596  -0.5470 
9     H3       0.7643  -35.9928   25.0860 H       1  LIG   0.3311   0.3700 
10    C5      -0.1450  -36.0180   23.4080 C.2     1  LIG   0.7361   0.5438 
11    C6      -0.1190  -36.0770   21.8860 C.ar    1  LIG  -0.2550   0.0862 
12    C7      -1.1230  -35.3990   21.1890 C.ar    1  LIG  -0.0321  -0.1500 
13    H4      -1.7552  -34.6955   21.7041 H       1  LIG   0.1623   0.1500 
14    C8      -1.2960  -35.6300   19.8690 C.ar    1  LIG  -0.2723  -0.1500 
15    H5      -2.0662  -35.1073   19.3273 H       1  LIG   0.1522   0.1500 
16    C9      -0.4670  -36.5450   19.2400 C.ar    1  LIG   0.4373   0.1600 
17    H6      -0.5947  -36.7554   18.1915 H       1  LIG   0.0280   0.1500 
18    N3       0.5220  -37.2120   19.8740 N.ar    1  LIG  -0.6893  -0.6200 
19    C10      0.7040  -36.9790   21.1800 C.ar    1  LIG   0.6480   0.4100 
20    N4       1.7670  -37.6730   21.8260 N.pl3   1  LIG  -0.6924  -0.3690 
21    C11      2.7540  -36.8570   22.5840 C.ar    1  LIG   0.5805   0.4100 
22    C12      2.9040  -34.5090   25.6010 C.3     1  LIG  -0.0620   0.1435 
23    H7       2.2235  -33.7630   25.2820 H       1  LIG   0.0570   0.0000 
24    H8       2.4436  -35.1154   26.3371 H       1  LIG   0.0495   0.0000 
25    H9       3.7654  -34.0491   26.0108 H       1  LIG   0.0519   0.0000 
26    O1      -1.2400  -35.9060   23.9770 O.2     1  LIG  -0.6361  -0.5700 
27    C13      2.3440  -38.7570   21.0360 C.3     1  LIG   0.1354   0.0690 
28    H10      3.1238  -38.3754   20.4296 H       1  LIG   0.0981   0.1000 
29    C14      2.9380  -39.8900   21.8010 C.3     1  LIG  -0.1181  -0.2000 
30    H11      3.8890  -40.1268   21.3997 H       1  LIG   0.0732   0.1000 
31    H12      3.0430  -39.6129   22.8177 H       1  LIG   0.0789   0.1000 
32    C15      1.6390  -40.0610   21.0880 C.3     1  LIG  -0.1196  -0.2000 
33    H13      0.6832  -39.9283   21.5242 H       1  LIG   0.0807   0.1000 
34    H14      1.5292  -40.4423   20.1061 H       1  LIG   0.0733   0.1000 
@<TRIPOS>BOND
1     2     1     ar
2     3     2     1
3     4     2     ar
4     5     4     1
5     6     4     ar
6     7     6     ar
7     8     7     1
8     9     8     1
9     10    8     1
10    11    10    1
11    12    11    ar
12    13    12    1
13    14    12    ar
14    15    14    1
15    16    14    ar
16    17    16    1
17    18    16    ar
18    19    11    ar
19    19    18    ar
20    20    19    1
21    21    1     ar
22    21    7     ar
23    21    20    1
24    22    6     1
25    23    22    1
26    24    22    1
27    25    22    1
28    26    10    2
29    27    20    1
30    28    27    1
31    29    27    1
32    30    29    1
33    31    29    1
34    32    27    1
35    32    29    1
36    33    32    1
37    34    32    1
@<TRIPOS>SUBSTRUCTURE
1   LIG    1    
 
########## Name        : 1VRT.lig
########## Description : AM1BCC_CHARGES =  -0.0002 ORIGINAL_CHARGES =  -0.0000

@<TRIPOS>MOLECULE
1VRT.lig
34    37    1     0     0    
SMALL
USER_CHARGES
@<TRIPOS>ATOM
1     N1       4.0540  -36.9310   22.2210 N.ar    1  LIG  -0.6650  -0.6200 
2     C1       4.9660  -36.2380   22.9390 C.ar    1  LIG   0.3947   0.1600 
3     H1       6.0082  -36.2811   22.6707 H       1  LIG   0.0281   0.1500 
4     C2       4.6240  -35.4500   24.0360 C.ar    1  LIG  -0.2334  -0.1500 
5     H2       5.3884  -34.9151   24.5740 H       1  LIG   0.1480   0.1500 
6     C3       3.3050  -35.3690   24.4150 C.ar    1  LIG  -0.0698  -0.1435 
7     C4       2.3460  -36.0770   23.6860 C.ar    1  LIG  -0.0398   0.1170 
8     N2       0.9890  -36.0280   24.1030 N.am    1  LIG  -0.4596  -0.5470 
9     H3       0.7643  -35.9928   25.0860 H       1  LIG   0.3311   0.3700 
10    C5      -0.1450  -36.0180   23.4080 C.2     1  LIG   0.7361   0.5438 
11    C6      -0.1190  -36.0770   21.8860 C.ar    1  LIG  -0.2550   0.0862 
12    C7      -1.1230  -35.3990   21.1890 C.ar    1  LIG  -0.0321  -0.1500 
13    H4      -1.7552  -34.6955   21.7041 H       1  LIG   0.1623   0.1500 
14    C8      -1.2960  -35.6300   19.8690 C.ar    1  LIG  -0.2723  -0.1500 
15    H5      -2.0662  -35.1073   19.3273 H       1  LIG   0.1522   0.1500 
16    C9      -0.4670  -36.5450   19.2400 C.ar    1  LIG   0.4373   0.1600 
17    H6      -0.5947  -36.7554   18.1915 H       1  LIG   0.0280   0.1500 
18    N3       0.5220  -37.2120   19.8740 N.ar    1  LIG  -0.6893  -0.6200 
19    C10      0.7040  -36.9790   21.1800 C.ar    1  LIG   0.6480   0.4100 
20    N4       1.7670  -37.6730   21.8260 N.pl3   1  LIG  -0.6924  -0.3690 
21    C11      2.7540  -36.8570   22.5840 C.ar    1  LIG   0.5805   0.4100 
22    C12      2.9040  -34.5090   25.6010 C.3     1  LIG  -0.0620   0.1435 
23    H7       2.2235  -33.7630   25.2820 H       1  LIG   0.0570   0.0000 
24    H8       2.4436  -35.1154   26.3371 H       1  LIG   0.0495   0.0000 
25    H9       3.7654  -34.0491   26.0108 H       1  LIG   0.0519   0.0000 
26    O1      -1.2400  -35.9060   23.9770 O.2     1  LIG  -0.6361  -0.5700 
27    C13      2.3440  -38.7570   21.0360 C.3     1  LIG   0.1354   0.0690 
28    H10      3.1238  -38.3754   20.4296 H       1  LIG   0.0981   0.1000 
29    C14      2.9380  -39.8900   21.8010 C.3     1  LIG  -0.1181  -0.2000 
30    H11      3.8890  -40.1268   21.3997 H       1  LIG   0.0732   0.1000 
31    H12      3.0430  -39.6129   22.8177 H       1  LIG   0.0789   0.1000 
32    C15      1.6390  -40.0610   21.0880 C.3     1  LIG  -0.1196  -0.2000 
33    H13      0.6832  -39.9283   21.5242 H       1  LIG   0.0807   0.1000 
34    H14      1.5292  -40.4423   20.1061 H       1  LIG   0.0733   0.1000 
@<TRIPOS>BOND
1     2     1     ar
2     3     2     1
3     4     2     ar
4     5     4     1
5     6     4     ar
6     7     6     ar
7     8     7     1
8     9     8     1
9     10    8     1
10    11    10    1
11    12    11    ar
12    13    12    1
13    14    12    ar
14    15    14    1
15    16    14    ar
16    17    16    1
17    18    16    ar
18    19    11    ar
19    19    18    ar
20    20    19    1
21    21    1     ar
22    21    7     ar
23    21    20    1
24    22    6     1
25    23    22    1
26    24    22    1
27    25    22    1
28    26    10    2
29    27    20    1
30    28    27    1
31    29    27    1
32    30    29    1
33    31    29    1
34    32    27    1
35    32    29    1
36    33    32    1
37    34    32    1
@<TRIPOS>SUBSTRUCTURE
1   LIG    1    
 
########## Name        : 1VRT.lig
########## Description : AM1BCC_CHARGES =  -0.0002 ORIGINAL_CHARGES =  -0.0000

@<TRIPOS>MOLECULE
1VRT.lig
34    37    1     0     0    
SMALL
USER_CHARGES
@<TRIPOS>ATOM
1     N1       4.0540  -36.9310   22.2210 N.ar    1  LIG  -0.6650  -0.6200 
2     C1       4.9660  -36.2380   22.9390 C.ar    1  LIG   0.3947   0.1600 
3     H1       6.0082  -36.2811   22.6707 H       1  LIG   0.0281   0.1500 
4     C2       4.6240  -35.4500   24.0360 C.ar    1  LIG  -0.2334  -0.1500 
5     H2       5.3884  -34.9151   24.5740 H       1  LIG   0.1480   0.1500 
6     C3       3.3050  -35.3690   24.4150 C.ar    1  LIG  -0.0698  -0.1435 
7     C4       2.3460  -36.0770   23.6860 C.ar    1  LIG  -0.0398   0.1170 
8     N2       0.9890  -36.0280   24.1030 N.am    1  LIG  -0.4596  -0.5470 
9     H3       0.7643  -35.9928   25.0860 H       1  LIG   0.3311   0.3700 
10    C5      -0.1450  -36.0180   23.4080 C.2     1  LIG   0.7361   0.5438 
11    C6      -0.1190  -36.0770   21.8860 C.ar    1  LIG  -0.2550   0.0862 
12    C7      -1.1230  -35.3990   21.1890 C.ar    1  LIG  -0.0321  -0.1500 
13    H4      -1.7552  -34.6955   21.7041 H       1  LIG   0.1623   0.1500 
14    C8      -1.2960  -35.6300   19.8690 C.ar    1  LIG  -0.2723  -0.1500 
15    H5      -2.0662  -35.1073   19.3273 H       1  LIG   0.1522   0.1500 
16    C9      -0.4670  -36.5450   19.2400 C.ar    1  LIG   0.4373   0.1600 
17    H6      -0.5947  -36.7554   18.1915 H       1  LIG   0.0280   0.1500 
18    N3       0.5220  -37.2120   19.8740 N.ar    1  LIG  -0.6893  -0.6200 
19    C10      0.7040  -36.9790   21.1800 C.ar    1  LIG   0.6480   0.4100 
20    N4       1.7670  -37.6730   21.8260 N.pl3   1  LIG  -0.6924  -0.3690 
21    C11      2.7540  -36.8570   22.5840 C.ar    1  LIG   0.5805   0.4100 
22    C12      2.9040  -34.5090   25.6010 C.3     1  LIG  -0.0620   0.1435 
23    H7       2.2235  -33.7630   25.2820 H       1  LIG   0.0570   0.0000 
24    H8       2.4436  -35.1154   26.3371 H       1  LIG   0.0495   0.0000 
25    H9       3.7654  -34.0491   26.0108 H       1  LIG   0.0519   0.0000 
26    O1      -1.2400  -35.9060   23.9770 O.2     1  LIG  -0.6361  -0.5700 
27    C13      2.3440  -38.7570   21.0360 C.3     1  LIG   0.1354   0.0690 
28    H10      3.1238  -38.3754   20.4296 H       1  LIG   0.0981   0.1000 
29    C14      2.9380  -39.8900   21.8010 C.3     1  LIG  -0.1181  -0.2000 
30    H11      3.8890  -40.1268   21.3997 H       1  LIG   0.0732   0.1000 
31    H12      3.0430  -39.6129   22.8177 H       1  LIG   0.0789   0.1000 
32    C15      1.6390  -40.0610   21.0880 C.3     1  LIG  -0.1196  -0.2000 
33    H13      0.6832  -39.9283   21.5242 H       1  LIG   0.0807   0.1000 
34    H14      1.5292  -40.4423   20.1061 H       1  LIG   0.0733   0.1000 
@<TRIPOS>BOND
1     2     1     ar
2     3     2     1
3     4     2     ar
4     5     4     1
5     6     4     ar
6     7     6     ar
7     8     7     1
8     9     8     1
9     10    8     1
10    11    10    1
11    12    11    ar
12    13    12    1
13    14    12    ar
14    15    14    1
15    16    14    ar
16    17    16    1
17    18    16    ar
18    19    11    ar
19    19    18    ar
20    20    19    1
21    21    1     ar
22    21    7     ar
23    21    20    1
24    22    6     1
25    23    22    1
26    24    22    1
27    25    22    1
28    26    10    2
29    27    20    1
30    28    27    1
31    29    27    1
32    30    29    1
33    31    29    1
34    32    27    1
35    32    29    1
36    33    32    1
37    34    32    1
@<TRIPOS>SUBSTRUCTURE
1   LIG    1    
 
########## Name        : 1VRT.lig
########## Description : AM1BCC_CHARGES =  -0.0002 ORIGINAL_CHARGES =  -0.0000

@<TRIPOS>MOLECULE
1VRT.lig
34    37    1     0     0    
SMALL
USER_CHARGES
@<TRIPOS>ATOM
1     N1       4.0540  -36.9310   22.2210 N.ar    1  LIG  -0.6650  -0.6200 
2     C1       4.9660  -36.2380   22.9390 C.ar    1  LIG   0.3947   0.1600 
3     H1       6.0082  -36.2811   22.6707 H       1  LIG   0.0281   0.1500 
4     C2       4.6240  -35.4500   24.0360 C.ar    1  LIG  -0.2334  -0.1500 
5     H2       5.3884  -34.9151   24.5740 H       1  LIG   0.1480   0.1500 
6     C3       3.3050  -35.3690   24.4150 C.ar    1  LIG  -0.0698  -0.1435 
7     C4       2.3460  -36.0770   23.6860 C.ar    1  LIG  -0.0398   0.1170 
8     N2       0.9890  -36.0280   24.1030 N.am    1  LIG  -0.4596  -0.5470 
9     H3       0.7643  -35.9928   25.0860 H       1  LIG   0.3311   0.3700 
10    C5      -0.1450  -36.0180   23.4080 C.2     1  LIG   0.7361   0.5438 
11    C6      -0.1190  -36.0770   21.8860 C.ar    1  LIG  -0.2550   0.0862 
12    C7      -1.1230  -35.3990   21.1890 C.ar    1  LIG  -0.0321  -0.1500 
13    H4      -1.7552  -34.6955   21.7041 H       1  LIG   0.1623   0.1500 
14    C8      -1.2960  -35.6300   19.8690 C.ar    1  LIG  -0.2723  -0.1500 
15    H5      -2.0662  -35.1073   19.3273 H       1  LIG   0.1522   0.1500 
16    C9      -0.4670  -36.5450   19.2400 C.ar    1  LIG   0.4373   0.1600 
17    H6      -0.5947  -36.7554   18.1915 H       1  LIG   0.0280   0.1500 
18    N3       0.5220  -37.2120   19.8740 N.ar    1  LIG  -0.6893  -0.6200 
19    C10      0.7040  -36.9790   21.1800 C.ar    1  LIG   0.6480   0.4100 
20    N4       1.7670  -37.6730   21.8260 N.pl3   1  LIG  -0.6924  -0.3690 
21    C11      2.7540  -36.8570   22.5840 C.ar    1  LIG   0.5805   0.4100 
22    C12      2.9040  -34.5090   25.6010 C.3     1  LIG  -0.0620   0.1435 
23    H7       2.2235  -33.7630   25.2820 H       1  LIG   0.0570   0.0000 
24    H8       2.4436  -35.1154   26.3371 H       1  LIG   0.0495   0.0000 
25    H9       3.7654  -34.0491   26.0108 H       1  LIG   0.0519   0.0000 
26    O1      -1.2400  -35.9060   23.9770 O.2     1  LIG  -0.6361  -0.5700 
27    C13      2.3440  -38.7570   21.0360 C.3     1  LIG   0.1354   0.0690 
28    H10      3.1238  -38.3754   20.4296 H       1  LIG   0.0981   0.1000 
29    C14      2.9380  -39.8900   21.8010 C.3     1  LIG  -0.1181  -0.2000 
30    H11      3.8890  -40.1268   21.3997 H       1  LIG   0.0732   0.1000 
31    H12      3.0430  -39.6129   22.8177 H       1  LIG   0.0789   0.1000 
32    C15      1.6390  -40.0610   21.0880 C.3     1  LIG  -0.1196  -0.2000 
33    H13      0.6832  -39.9283   21.5242 H       1  LIG   0.0807   0.1000 
34    H14      1.5292  -40.4423   20.1061 H       1  LIG   0.0733   0.1000 
@<TRIPOS>BOND
1     2     1     ar
2     3     2     1
3     4     2     ar
4     5     4     1
5     6     4     ar
6     7     6     ar
7     8     7     1
8     9     8     1
9     10    8     1
10    11    10    1
11    12    11    ar
12    13    12    1
13    14    12    ar
14    15    14    1
15    16    14    ar
16    17    16    1
17    18    16    ar
18    19    11    ar
19    19    18    ar
20    20    19    1
21    21    1     ar
22    21    7     ar
23    21    20    1
24    22    6     1
25    23    22    1
26    24    22    1
27    25    22    1
28    26    10    2
29    27    20    1
30    28    27    1
31    29    27    1
32    30    29    1
33    31    29    1
34    32    27    1
35    32    29    1
36    33    32    1
37    34    32    1
@<TRIPOS>SUBSTRUCTURE
1   LIG    1    
 
########## Name        : 1VRT.lig
########## Description : AM1BCC_CHARGES =  -0.0002 ORIGINAL_CHARGES =  -0.0000

@<TRIPOS>MOLECULE
1VRT.lig
34    37    1     0     0    
SMALL
USER_CHARGES
@<TRIPOS>ATOM
1     N1       4.0540  -36.9310   22.2210 N.ar    1  LIG  -0.6650  -0.6200 
2     C1       4.9660  -36.2380   22.9390 C.ar    1  LIG   0.3947   0.1600 
3     H1       6.0082  -36.2811   22.6707 H       1  LIG   0.0281   0.1500 
4     C2       4.6240  -35.4500   24.0360 C.ar    1  LIG  -0.2334  -0.1500 
5     H2       5.3884  -34.9151   24.5740 H       1  LIG   0.1480   0.1500 
6     C3       3.3050  -35.3690   24.4150 C.ar    1  LIG  -0.0698  -0.1435 
7     C4       2.3460  -36.0770   23.6860 C.ar    1  LIG  -0.0398   0.1170 
8     N2       0.9890  -36.0280   24.1030 N.am    1  LIG  -0.4596  -0.5470 
9     H3       0.7643  -35.9928   25.0860 H       1  LIG   0.3311   0.3700 
10    C5      -0.1450  -36.0180   23.4080 C.2     1  LIG   0.7361   0.5438 
11    C6      -0.1190  -36.0770   21.8860 C.ar    1  LIG  -0.2550   0.0862 
12    C7      -1.1230  -35.3990   21.1890 C.ar    1  LIG  -0.0321  -0.1500 
13    H4      -1.7552  -34.6955   21.7041 H       1  LIG   0.1623   0.1500 
14    C8      -1.2960  -35.6300   19.8690 C.ar    1  LIG  -0.2723  -0.1500 
15    H5      -2.0662  -35.1073   19.3273 H       1  LIG   0.1522   0.1500 
16    C9      -0.4670  -36.5450   19.2400 C.ar    1  LIG   0.4373   0.1600 
17    H6      -0.5947  -36.7554   18.1915 H       1  LIG   0.0280   0.1500 
18    N3       0.5220  -37.2120   19.8740 N.ar    1  LIG  -0.6893  -0.6200 
19    C10      0.7040  -36.9790   21.1800 C.ar    1  LIG   0.6480   0.4100 
20    N4       1.7670  -37.6730   21.8260 N.pl3   1  LIG  -0.6924  -0.3690 
21    C11      2.7540  -36.8570   22.5840 C.ar    1  LIG   0.5805   0.4100 
22    C12      2.9040  -34.5090   25.6010 C.3     1  LIG  -0.0620   0.1435 
23    H7       2.2235  -33.7630   25.2820 H       1  LIG   0.0570   0.0000 
24    H8       2.4436  -35.1154   26.3371 H       1  LIG   0.0495   0.0000 
25    H9       3.7654  -34.0491   26.0108 H       1  LIG   0.0519   0.0000 
26    O1      -1.2400  -35.9060   23.9770 O.2     1  LIG  -0.6361  -0.5700 
27    C13      2.3440  -38.7570   21.0360 C.3     1  LIG   0.1354   0.0690 
28    H10      3.1238  -38.3754   20.4296 H       1  LIG   0.0981   0.1000 
29    C14      2.9380  -39.8900   21.8010 C.3     1  LIG  -0.1181  -0.2000 
30    H11      3.8890  -40.1268   21.3997 H       1  LIG   0.0732   0.1000 
31    H12      3.0430  -39.6129   22.8177 H       1  LIG   0.0789   0.1000 
32    C15      1.6390  -40.0610   21.0880 C.3     1  LIG  -0.1196  -0.2000 
33    H13      0.6832  -39.9283   21.5242 H       1  LIG   0.0807   0.1000 
34    H14      1.5292  -40.4423   20.1061 H       1  LIG   0.0733   0.1000 
@<TRIPOS>BOND
1     2     1     ar
2     3     2     1
3     4     2     ar
4     5     4     1
5     6     4     ar
6     7     6     ar
7     8     7     1
8     9     8     1
9     10    8     1
10    11    10    1
11    12    11    ar
12    13    12    1
13    14    12    ar
14    15    14    1
15    16    14    ar
16    17    16    1
17    18    16    ar
18    19    11    ar
19    19    18    ar
20    20    19    1
21    21    1     ar
22    21    7     ar
23    21    20    1
24    22    6     1
25    23    22    1
26    24    22    1
27    25    22    1
28    26    10    2
29    27    20    1
30    28    27    1
31    29    27    1
32    30    29    1
33    31    29    1
34    32    27    1
35    32    29    1
36    33    32    1
37    34    32    1
@<TRIPOS>SUBSTRUCTURE
1   LIG    1    
 
########## Name        : 1VRT.lig
########## Description : AM1BCC_CHARGES =  -0.0002 ORIGINAL_CHARGES =  -0.0000

@<TRIPOS>MOLECULE
1VRT.lig
34    37    1     0     0    
SMALL
USER_CHARGES
@<TRIPOS>ATOM
1     N1       4.0540  -36.9310   22.2210 N.ar    1  LIG  -0.6650  -0.6200 
2     C1       4.9660  -36.2380   22.9390 C.ar    1  LIG   0.3947   0.1600 
3     H1       6.0082  -36.2811   22.6707 H       1  LIG   0.0281   0.1500 
4     C2       4.6240  -35.4500   24.0360 C.ar    1  LIG  -0.2334  -0.1500 
5     H2       5.3884  -34.9151   24.5740 H       1  LIG   0.1480   0.1500 
6     C3       3.3050  -35.3690   24.4150 C.ar    1  LIG  -0.0698  -0.1435 
7     C4       2.3460  -36.0770   23.6860 C.ar    1  LIG  -0.0398   0.1170 
8     N2       0.9890  -36.0280   24.1030 N.am    1  LIG  -0.4596  -0.5470 
9     H3       0.7643  -35.9928   25.0860 H       1  LIG   0.3311   0.3700 
10    C5      -0.1450  -36.0180   23.4080 C.2     1  LIG   0.7361   0.5438 
11    C6      -0.1190  -36.0770   21.8860 C.ar    1  LIG  -0.2550   0.0862 
12    C7      -1.1230  -35.3990   21.1890 C.ar    1  LIG  -0.0321  -0.1500 
13    H4      -1.7552  -34.6955   21.7041 H       1  LIG   0.1623   0.1500 
14    C8      -1.2960  -35.6300   19.8690 C.ar    1  LIG  -0.2723  -0.1500 
15    H5      -2.0662  -35.1073   19.3273 H       1  LIG   0.1522   0.1500 
16    C9      -0.4670  -36.5450   19.2400 C.ar    1  LIG   0.4373   0.1600 
17    H6      -0.5947  -36.7554   18.1915 H       1  LIG   0.0280   0.1500 
18    N3       0.5220  -37.2120   19.8740 N.ar    1  LIG  -0.6893  -0.6200 
19    C10      0.7040  -36.9790   21.1800 C.ar    1  LIG   0.6480   0.4100 
20    N4       1.7670  -37.6730   21.8260 N.pl3   1  LIG  -0.6924  -0.3690 
21    C11      2.7540  -36.8570   22.5840 C.ar    1  LIG   0.5805   0.4100 
22    C12      2.9040  -34.5090   25.6010 C.3     1  LIG  -0.0620   0.1435 
23    H7       2.2235  -33.7630   25.2820 H       1  LIG   0.0570   0.0000 
24    H8       2.4436  -35.1154   26.3371 H       1  LIG   0.0495   0.0000 
25    H9       3.7654  -34.0491   26.0108 H       1  LIG   0.0519   0.0000 
26    O1      -1.2400  -35.9060   23.9770 O.2     1  LIG  -0.6361  -0.5700 
27    C13      2.3440  -38.7570   21.0360 C.3     1  LIG   0.1354   0.0690 
28    H10      3.1238  -38.3754   20.4296 H       1  LIG   0.0981   0.1000 
29    C14      2.9380  -39.8900   21.8010 C.3     1  LIG  -0.1181  -0.2000 
30    H11      3.8890  -40.1268   21.3997 H       1  LIG   0.0732   0.1000 
31    H12      3.0430  -39.6129   22.8177 H       1  LIG   0.0789   0.1000 
32    C15      1.6390  -40.0610   21.0880 C.3     1  LIG  -0.1196  -0.2000 
33    H13      0.6832  -39.9283   21.5242 H       1  LIG   0.0807   0.1000 
34    H14      1.5292  -40.4423   20.1061 H       1  LIG   0.0733   0.1000 
@<TRIPOS>BOND
1     2     1     ar
2     3     2     1
3     4     2     ar
4     5     4     1
5     6     4     ar
6     7     6     ar
7     8     7     1
8     9     8     1
9     10    8     1
10    11    10    1
11    12    11    ar
12    13    12    1
13    14    12    ar
14    15    14    1
15    16    14    ar
16    17    16    1
17    18    16    ar
18    19    11    ar
19    19    18    ar
20    20    19    1
21    21    1     ar
22    21    7     ar
23    21    20    1
24    22    6     1
25    23    22    1
26    24    22    1
27    25    22    1
28    26    10    2
29    27    20    1
30    28    27    1
31    29    27    1
32    30    29    1
33    31    29    1
34    32    27    1
35    32    29    1
36    33    32    1
37    34    32    1
@<TRIPOS>SUBSTRUCTURE
1   LIG    1    
 
########## Name        : 1VRT.lig
########## Description : AM1BCC_CHARGES =  -0.0002 ORIGINAL_CHARGES =  -0.0000

@<TRIPOS>MOLECULE
1VRT.lig
34    37    1     0     0    
SMALL
USER_CHARGES
@<TRIPOS>ATOM
1     N1       4.0540  -36.9310   22.2210 N.ar    1  LIG  -0.6650  -0.6200 
2     C1       4.9660  -36.2380   22.9390 C.ar    1  LIG   0.3947   0.1600 
3     H1       6.0082  -36.2811   22.6707 H       1  LIG   0.0281   0.1500 
4     C2       4.6240  -35.4500   24.0360 C.ar    1  LIG  -0.2334  -0.1500 
5     H2       5.3884  -34.9151   24.5740 H       1  LIG   0.1480   0.1500 
6     C3       3.3050  -35.3690   24.4150 C.ar    1  LIG  -0.0698  -0.1435 
7     C4       2.3460  -36.0770   23.6860 C.ar    1  LIG  -0.0398   0.1170 
8     N2       0.9890  -36.0280   24.1030 N.am    1  LIG  -0.4596  -0.5470 
9     H3       0.7643  -35.9928   25.0860 H       1  LIG   0.3311   0.3700 
10    C5      -0.1450  -36.0180   23.4080 C.2     1  LIG   0.7361   0.5438 
11    C6      -0.1190  -36.0770   21.8860 C.ar    1  LIG  -0.2550   0.0862 
12    C7      -1.1230  -35.3990   21.1890 C.ar    1  LIG  -0.0321  -0.1500 
13    H4      -1.7552  -34.6955   21.7041 H       1  LIG   0.1623   0.1500 
14    C8      -1.2960  -35.6300   19.8690 C.ar    1  LIG  -0.2723  -0.1500 
15    H5      -2.0662  -35.1073   19.3273 H       1  LIG   0.1522   0.1500 
16    C9      -0.4670  -36.5450   19.2400 C.ar    1  LIG   0.4373   0.1600 
17    H6      -0.5947  -36.7554   18.1915 H       1  LIG   0.0280   0.1500 
18    N3       0.5220  -37.2120   19.8740 N.ar    1  LIG  -0.6893  -0.6200 
19    C10      0.7040  -36.9790   21.1800 C.ar    1  LIG   0.6480   0.4100 
20    N4       1.7670  -37.6730   21.8260 N.pl3   1  LIG  -0.6924  -0.3690 
21    C11      2.7540  -36.8570   22.5840 C.ar    1  LIG   0.5805   0.4100 
22    C12      2.9040  -34.5090   25.6010 C.3     1  LIG  -0.0620   0.1435 
23    H7       2.2235  -33.7630   25.2820 H       1  LIG   0.0570   0.0000 
24    H8       2.4436  -35.1154   26.3371 H       1  LIG   0.0495   0.0000 
25    H9       3.7654  -34.0491   26.0108 H       1  LIG   0.0519   0.0000 
26    O1      -1.2400  -35.9060   23.9770 O.2     1  LIG  -0.6361  -0.5700 
27    C13      2.3440  -38.7570   21.0360 C.3     1  LIG   0.1354   0.0690 
28    H10      3.1238  -38.3754   20.4296 H       1  LIG   0.0981   0.1000 
29    C14      2.9380  -39.8900   21.8010 C.3     1  LIG  -0.1181  -0.2000 
30    H11      3.8890  -40.1268   21.3997 H       1  LIG   0.0732   0.1000 
31    H12      3.0430  -39.6129   22.8177 H       1  LIG   0.0789   0.1000 
32    C15      1.6390  -40.0610   21.0880 C.3     1  LIG  -0.1196  -0.2000 
33    H13      0.6832  -39.9283   21.5242 H       1  LIG   0.0807   0.1000 
34    H14      1.5292  -40.4423   20.1061 H       1  LIG   0.0733   0.1000 
@<TRIPOS>BOND
1     2     1     ar
2     3     2     1
3     4     2     ar
4     5     4     1
5     6     4     ar
6     7     6     ar
7     8     7     1
8     9     8     1
9     10    8     1
10    11    10    1
11    12    11    ar
12    13    12    1
13    14    12    ar
14    15    14    1
15    16    14    ar
16    17    16    1
17    18    16    ar
18    19    11    ar
19    19    18    ar
20    20    19    1
21    21    1     ar
22    21    7     ar
23    21    20    1
24    22    6     1
25    23    22    1
26    24    22    1
27    25    22    1
28    26    10    2
29    27    20    1
30    28    27    1
31    29    27    1
32    30    29    1
33    31    29    1
34    32    27    1
35    32    29    1
36    33    32    1
37    34    32    1
@<TRIPOS>SUBSTRUCTURE
1   LIG    1    
 
########## Name        : 1VRT.lig
########## Description : AM1BCC_CHARGES =  -0.0002 ORIGINAL_CHARGES =  -0.0000

@<TRIPOS>MOLECULE
1VRT.lig
34    37    1     0     0    
SMALL
USER_CHARGES
@<TRIPOS>ATOM
1     N1       4.0540  -36.9310   22.2210 N.ar    1  LIG  -0.6650  -0.6200 
2     C1       4.9660  -36.2380   22.9390 C.ar    1  LIG   0.3947   0.1600 
3     H1       6.0082  -36.2811   22.6707 H       1  LIG   0.0281   0.1500 
4     C2       4.6240  -35.4500   24.0360 C.ar    1  LIG  -0.2334  -0.1500 
5     H2       5.3884  -34.9151   24.5740 H       1  LIG   0.1480   0.1500 
6     C3       3.3050  -35.3690   24.4150 C.ar    1  LIG  -0.0698  -0.1435 
7     C4       2.3460  -36.0770   23.6860 C.ar    1  LIG  -0.0398   0.1170 
8     N2       0.9890  -36.0280   24.1030 N.am    1  LIG  -0.4596  -0.5470 
9     H3       0.7643  -35.9928   25.0860 H       1  LIG   0.3311   0.3700 
10    C5      -0.1450  -36.0180   23.4080 C.2     1  LIG   0.7361   0.5438 
11    C6      -0.1190  -36.0770   21.8860 C.ar    1  LIG  -0.2550   0.0862 
12    C7      -1.1230  -35.3990   21.1890 C.ar    1  LIG  -0.0321  -0.1500 
13    H4      -1.7552  -34.6955   21.7041 H       1  LIG   0.1623   0.1500 
14    C8      -1.2960  -35.6300   19.8690 C.ar    1  LIG  -0.2723  -0.1500 
15    H5      -2.0662  -35.1073   19.3273 H       1  LIG   0.1522   0.1500 
16    C9      -0.4670  -36.5450   19.2400 C.ar    1  LIG   0.4373   0.1600 
17    H6      -0.5947  -36.7554   18.1915 H       1  LIG   0.0280   0.1500 
18    N3       0.5220  -37.2120   19.8740 N.ar    1  LIG  -0.6893  -0.6200 
19    C10      0.7040  -36.9790   21.1800 C.ar    1  LIG   0.6480   0.4100 
20    N4       1.7670  -37.6730   21.8260 N.pl3   1  LIG  -0.6924  -0.3690 
21    C11      2.7540  -36.8570   22.5840 C.ar    1  LIG   0.5805   0.4100 
22    C12      2.9040  -34.5090   25.6010 C.3     1  LIG  -0.0620   0.1435 
23    H7       2.2235  -33.7630   25.2820 H       1  LIG   0.0570   0.0000 
24    H8       2.4436  -35.1154   26.3371 H       1  LIG   0.0495   0.0000 
25    H9       3.7654  -34.0491   26.0108 H       1  LIG   0.0519   0.0000 
26    O1      -1.2400  -35.9060   23.9770 O.2     1  LIG  -0.6361  -0.5700 
27    C13      2.3440  -38.7570   21.0360 C.3     1  LIG   0.1354   0.0690 
28    H10      3.1238  -38.3754   20.4296 H       1  LIG   0.0981   0.1000 
29    C14      2.9380  -39.8900   21.8010 C.3     1  LIG  -0.1181  -0.2000 
30    H11      3.8890  -40.1268   21.3997 H       1  LIG   0.0732   0.1000 
31    H12      3.0430  -39.6129   22.8177 H       1  LIG   0.0789   0.1000 
32    C15      1.6390  -40.0610   21.0880 C.3     1  LIG  -0.1196  -0.2000 
33    H13      0.6832  -39.9283   21.5242 H       1  LIG   0.0807   0.1000 
34    H14      1.5292  -40.4423   20.1061 H       1  LIG   0.0733   0.1000 
@<TRIPOS>BOND
1     2     1     ar
2     3     2     1
3     4     2     ar
4     5     4     1
5     6     4     ar
6     7     6     ar
7     8     7     1
8     9     8     1
9     10    8     1
10    11    10    1
11    12    11    ar
12    13    12    1
13    14    12    ar
14    15    14    1
15    16    14    ar
16    17    16    1
17    18    16    ar
18    19    11    ar
19    19    18    ar
20    20    19    1
21    21    1     ar
22    21    7     ar
23    21    20    1
24    22    6     1
25    23    22    1
26    24    22    1
27    25    22    1
28    26    10    2
29    27    20    1
30    28    27    1
31    29    27    1
32    30    29    1
33    31    29    1
34    32    27    1
35    32    29    1
36    33    32    1
37    34    32    1
@<TRIPOS>SUBSTRUCTURE
1   LIG    1    
 
########## Name        : 1VRT.lig
########## Description : AM1BCC_CHARGES =  -0.0002 ORIGINAL_CHARGES =  -0.0000

@<TRIPOS>MOLECULE
1VRT.lig
34    37    1     0     0    
SMALL
USER_CHARGES
@<TRIPOS>ATOM
1     N1       4.0540  -36.9310   22.2210 N.ar    1  LIG  -0.6650  -0.6200 
2     C1       4.9660  -36.2380   22.9390 C.ar    1  LIG   0.3947   0.1600 
3     H1       6.0082  -36.2811   22.6707 H       1  LIG   0.0281   0.1500 
4     C2       4.6240  -35.4500   24.0360 C.ar    1  LIG  -0.2334  -0.1500 
5     H2       5.3884  -34.9151   24.5740 H       1  LIG   0.1480   0.1500 
6     C3       3.3050  -35.3690   24.4150 C.ar    1  LIG  -0.0698  -0.1435 
7     C4       2.3460  -36.0770   23.6860 C.ar    1  LIG  -0.0398   0.1170 
8     N2       0.9890  -36.0280   24.1030 N.am    1  LIG  -0.4596  -0.5470 
9     H3       0.7643  -35.9928   25.0860 H       1  LIG   0.3311   0.3700 
10    C5      -0.1450  -36.0180   23.4080 C.2     1  LIG   0.7361   0.5438 
11    C6      -0.1190  -36.0770   21.8860 C.ar    1  LIG  -0.2550   0.0862 
12    C7      -1.1230  -35.3990   21.1890 C.ar    1  LIG  -0.0321  -0.1500 
13    H4      -1.7552  -34.6955   21.7041 H       1  LIG   0.1623   0.1500 
14    C8      -1.2960  -35.6300   19.8690 C.ar    1  LIG  -0.2723  -0.1500 
15    H5      -2.0662  -35.1073   19.3273 H       1  LIG   0.1522   0.1500 
16    C9      -0.4670  -36.5450   19.2400 C.ar    1  LIG   0.4373   0.1600 
17    H6      -0.5947  -36.7554   18.1915 H       1  LIG   0.0280   0.1500 
18    N3       0.5220  -37.2120   19.8740 N.ar    1  LIG  -0.6893  -0.6200 
19    C10      0.7040  -36.9790   21.1800 C.ar    1  LIG   0.6480   0.4100 
20    N4       1.7670  -37.6730   21.8260 N.pl3   1  LIG  -0.6924  -0.3690 
21    C11      2.7540  -36.8570   22.5840 C.ar    1  LIG   0.5805   0.4100 
22    C12      2.9040  -34.5090   25.6010 C.3     1  LIG  -0.0620   0.1435 
23    H7       2.2235  -33.7630   25.2820 H       1  LIG   0.0570   0.0000 
24    H8       2.4436  -35.1154   26.3371 H       1  LIG   0.0495   0.0000 
25    H9       3.7654  -34.0491   26.0108 H       1  LIG   0.0519   0.0000 
26    O1      -1.2400  -35.9060   23.9770 O.2     1  LIG  -0.6361  -0.5700 
27    C13      2.3440  -38.7570   21.0360 C.3     1  LIG   0.1354   0.0690 
28    H10      3.1238  -38.3754   20.4296 H       1  LIG   0.0981   0.1000 
29    C14      2.9380  -39.8900   21.8010 C.3     1  LIG  -0.1181  -0.2000 
30    H11      3.8890  -40.1268   21.3997 H       1  LIG   0.0732   0.1000 
31    H12      3.0430  -39.6129   22.8177 H       1  LIG   0.0789   0.1000 
32    C15      1.6390  -40.0610   21.0880 C.3     1  LIG  -0.1196  -0.2000 
33    H13      0.6832  -39.9283   21.5242 H       1  LIG   0.0807   0.1000 
34    H14      1.5292  -40.4423   20.1061 H       1  LIG   0.0733   0.1000 
@<TRIPOS>BOND
1     2     1     ar
2     3     2     1
3     4     2     ar
4     5     4     1
5     6     4     ar
6     7     6     ar
7     8     7     1
8     9     8     1
9     10    8     1
10    11    10    1
11    12    11    ar
12    13    12    1
13    14    12    ar
14    15    14    1
15    16    14    ar
16    17    16    1
17    18    16    ar
18    19    11    ar
19    19    18    ar
20    20    19    1
21    21    1     ar
22    21    7     ar
23    21    20    1
24    22    6     1
25    23    22    1
26    24    22    1
27    25    22    1
28    26    10    2
29    27    20    1
30    28    27    1
31    29    27    1
32    30    29    1
33    31    29    1
34    32    27    1
35    32    29    1
36    33    32    1
37    34    32    1
@<TRIPOS>SUBSTRUCTURE
1   LIG    1    
 
########## Name        : 1VRT.lig
########## Description : AM1BCC_CHARGES =  -0.0002 ORIGINAL_CHARGES =  -0.0000

@<TRIPOS>MOLECULE
1VRT.lig
34    37    1     0     0    
SMALL
USER_CHARGES
@<TRIPOS>ATOM
1     N1       4.0540  -36.9310   22.2210 N.ar    1  LIG  -0.6650  -0.6200 
2     C1       4.9660  -36.2380   22.9390 C.ar    1  LIG   0.3947   0.1600 
3     H1       6.0082  -36.2811   22.6707 H       1  LIG   0.0281   0.1500 
4     C2       4.6240  -35.4500   24.0360 C.ar    1  LIG  -0.2334  -0.1500 
5     H2       5.3884  -34.9151   24.5740 H       1  LIG   0.1480   0.1500 
6     C3       3.3050  -35.3690   24.4150 C.ar    1  LIG  -0.0698  -0.1435 
7     C4       2.3460  -36.0770   23.6860 C.ar    1  LIG  -0.0398   0.1170 
8     N2       0.9890  -36.0280   24.1030 N.am    1  LIG  -0.4596  -0.5470 
9     H3       0.7643  -35.9928   25.0860 H       1  LIG   0.3311   0.3700 
10    C5      -0.1450  -36.0180   23.4080 C.2     1  LIG   0.7361   0.5438 
11    C6      -0.1190  -36.0770   21.8860 C.ar    1  LIG  -0.2550   0.0862 
12    C7      -1.1230  -35.3990   21.1890 C.ar    1  LIG  -0.0321  -0.1500 
13    H4      -1.7552  -34.6955   21.7041 H       1  LIG   0.1623   0.1500 
14    C8      -1.2960  -35.6300   19.8690 C.ar    1  LIG  -0.2723  -0.1500 
15    H5      -2.0662  -35.1073   19.3273 H       1  LIG   0.1522   0.1500 
16    C9      -0.4670  -36.5450   19.2400 C.ar    1  LIG   0.4373   0.1600 
17    H6      -0.5947  -36.7554   18.1915 H       1  LIG   0.0280   0.1500 
18    N3       0.5220  -37.2120   19.8740 N.ar    1  LIG  -0.6893  -0.6200 
19    C10      0.7040  -36.9790   21.1800 C.ar    1  LIG   0.6480   0.4100 
20    N4       1.7670  -37.6730   21.8260 N.pl3   1  LIG  -0.6924  -0.3690 
21    C11      2.7540  -36.8570   22.5840 C.ar    1  LIG   0.5805   0.4100 
22    C12      2.9040  -34.5090   25.6010 C.3     1  LIG  -0.0620   0.1435 
23    H7       2.2235  -33.7630   25.2820 H       1  LIG   0.0570   0.0000 
24    H8       2.4436  -35.1154   26.3371 H       1  LIG   0.0495   0.0000 
25    H9       3.7654  -34.0491   26.0108 H       1  LIG   0.0519   0.0000 
26    O1      -1.2400  -35.9060   23.9770 O.2     1  LIG  -0.6361  -0.5700 
27    C13      2.3440  -38.7570   21.0360 C.3     1  LIG   0.1354   0.0690 
28    H10      3.1238  -38.3754   20.4296 H       1  LIG   0.0981   0.1000 
29    C14      2.9380  -39.8900   21.8010 C.3     1  LIG  -0.1181  -0.2000 
30    H11      3.8890  -40.1268   21.3997 H       1  LIG   0.0732   0.1000 
31    H12      3.0430  -39.6129   22.8177 H       1  LIG   0.0789   0.1000 
32    C15      1.6390  -40.0610   21.0880 C.3     1  LIG  -0.1196  -0.2000 
33    H13      0.6832  -39.9283   21.5242 H       1  LIG   0.0807   0.1000 
34    H14      1.5292  -40.4423   20.1061 H       1  LIG   0.0733   0.1000 
@<TRIPOS>BOND
1     2     1     ar
2     3     2     1
3     4     2     ar
4     5     4     1
5     6     4     ar
6     7     6     ar
7     8     7     1
8     9     8     1
9     10    8     1
10    11    10    1
11    12    11    ar
12    13    12    1
13    14    12    ar
14    15    14    1
15    16    14    ar
16    17    16    1
17    18    16    ar
18    19    11    ar
19    19    18    ar
20    20    19    1
21    21    1     ar
22    21    7     ar
23    21    20    1
24    22    6     1
25    23    22    1
26    24    22    1
27    25    22    1
28    26    10    2
29    27    20    1
30    28    27    1
31    29    27    1
32    30    29    1
33    31    29    1
34    32    27    1
35    32    29    1
36    33    32    1
37    34    32    1
@<TRIPOS>SUBSTRUCTURE
1   LIG    1    
 
########## Name        : 1VRT.lig
########## Description : AM1BCC_CHARGES =  -0.0002 ORIGINAL_CHARGES =  -0.0000

@<TRIPOS>MOLECULE
1VRT.lig
34    37    1     0     0    
SMALL
USER_CHARGES
@<TRIPOS>ATOM
1     N1       4.0540  -36.9310   22.2210 N.ar    1  LIG  -0.6650  -0.6200 
2     C1       4.9660  -36.2380   22.9390 C.ar    1  LIG   0.3947   0.1600 
3     H1       6.0082  -36.2811   22.6707 H       1  LIG   0.0281   0.1500 
4     C2       4.6240  -35.4500   24.0360 C.ar    1  LIG  -0.2334  -0.1500 
5     H2       5.3884  -34.9151   24.5740 H       1  LIG   0.1480   0.1500 
6     C3       3.3050  -35.3690   24.4150 C.ar    1  LIG  -0.0698  -0.1435 
7     C4       2.3460  -36.0770   23.6860 C.ar    1  LIG  -0.0398   0.1170 
8     N2       0.9890  -36.0280   24.1030 N.am    1  LIG  -0.4596  -0.5470 
9     H3       0.7643  -35.9928   25.0860 H       1  LIG   0.3311   0.3700 
10    C5      -0.1450  -36.0180   23.4080 C.2     1  LIG   0.7361   0.5438 
11    C6      -0.1190  -36.0770   21.8860 C.ar    1  LIG  -0.2550   0.0862 
12    C7      -1.1230  -35.3990   21.1890 C.ar    1  LIG  -0.0321  -0.1500 
13    H4      -1.7552  -34.6955   21.7041 H       1  LIG   0.1623   0.1500 
14    C8      -1.2960  -35.6300   19.8690 C.ar    1  LIG  -0.2723  -0.1500 
15    H5      -2.0662  -35.1073   19.3273 H       1  LIG   0.1522   0.1500 
16    C9      -0.4670  -36.5450   19.2400 C.ar    1  LIG   0.4373   0.1600 
17    H6      -0.5947  -36.7554   18.1915 H       1  LIG   0.0280   0.1500 
18    N3       0.5220  -37.2120   19.8740 N.ar    1  LIG  -0.6893  -0.6200 
19    C10      0.7040  -36.9790   21.1800 C.ar    1  LIG   0.6480   0.4100 
20    N4       1.7670  -37.6730   21.8260 N.pl3   1  LIG  -0.6924  -0.3690 
21    C11      2.7540  -36.8570   22.5840 C.ar    1  LIG   0.5805   0.4100 
22    C12      2.9040  -34.5090   25.6010 C.3     1  LIG  -0.0620   0.1435 
23    H7       2.2235  -33.7630   25.2820 H       1  LIG   0.0570   0.0000 
24    H8       2.4436  -35.1154   26.3371 H       1  LIG   0.0495   0.0000 
25    H9       3.7654  -34.0491   26.0108 H       1  LIG   0.0519   0.0000 
26    O1      -1.2400  -35.9060   23.9770 O.2     1  LIG  -0.6361  -0.5700 
27    C13      2.3440  -38.7570   21.0360 C.3     1  LIG   0.1354   0.0690 
28    H10      3.1238  -38.3754   20.4296 H       1  LIG   0.0981   0.1000 
29    C14      2.9380  -39.8900   21.8010 C.3     1  LIG  -0.1181  -0.2000 
30    H11      3.8890  -40.1268   21.3997 H       1  LIG   0.0732   0.1000 
31    H12      3.0430  -39.6129   22.8177 H       1  LIG   0.0789   0.1000 
32    C15      1.6390  -40.0610   21.0880 C.3     1  LIG  -0.1196  -0.2000 
33    H13      0.6832  -39.9283   21.5242 H       1  LIG   0.0807   0.1000 
34    H14      1.5292  -40.4423   20.1061 H       1  LIG   0.0733   0.1000 
@<TRIPOS>BOND
1     2     1     ar
2     3     2     1
3     4     2     ar
4     5     4     1
5     6     4     ar
6     7     6     ar
7     8     7     1
8     9     8     1
9     10    8     1
10    11    10    1
11    12    11    ar
12    13    12    1
13    14    12    ar
14    15    14    1
15    16    14    ar
16    17    16    1
17    18    16    ar
18    19    11    ar
19    19    18    ar
20    20    19    1
21    21    1     ar
22    21    7     ar
23    21    20    1
24    22    6     1
25    23    22    1
26    24    22    1
27    25    22    1
28    26    10    2
29    27    20    1
30    28    27    1
31    29    27    1
32    30    29    1
33    31    29    1
34    32    27    1
35    32    29    1
36    33    32    1
37    34    32    1
@<TRIPOS>SUBSTRUCTURE
1   LIG    1    
 
########## Name        : 1VRT.lig
########## Description : AM1BCC_CHARGES =  -0.0002 ORIGINAL_CHARGES =  -0.0000

@<TRIPOS>MOLECULE
1VRT.lig
34    37    1     0     0    
SMALL
USER_CHARGES
@<TRIPOS>ATOM
1     N1       4.0540  -36.9310   22.2210 N.ar    1  LIG  -0.6650  -0.6200 
2     C1       4.9660  -36.2380   22.9390 C.ar    1  LIG   0.3947   0.1600 
3     H1       6.0082  -36.2811   22.6707 H       1  LIG   0.0281   0.1500 
4     C2       4.6240  -35.4500   24.0360 C.ar    1  LIG  -0.2334  -0.1500 
5     H2       5.3884  -34.9151   24.5740 H       1  LIG   0.1480   0.1500 
6     C3       3.3050  -35.3690   24.4150 C.ar    1  LIG  -0.0698  -0.1435 
7     C4       2.3460  -36.0770   23.6860 C.ar    1  LIG  -0.0398   0.1170 
8     N2       0.9890  -36.0280   24.1030 N.am    1  LIG  -0.4596  -0.5470 
9     H3       0.7643  -35.9928   25.0860 H       1  LIG   0.3311   0.3700 
10    C5      -0.1450  -36.0180   23.4080 C.2     1  LIG   0.7361   0.5438 
11    C6      -0.1190  -36.0770   21.8860 C.ar    1  LIG  -0.2550   0.0862 
12    C7      -1.1230  -35.3990   21.1890 C.ar    1  LIG  -0.0321  -0.1500 
13    H4      -1.7552  -34.6955   21.7041 H       1  LIG   0.1623   0.1500 
14    C8      -1.2960  -35.6300   19.8690 C.ar    1  LIG  -0.2723  -0.1500 
15    H5      -2.0662  -35.1073   19.3273 H       1  LIG   0.1522   0.1500 
16    C9      -0.4670  -36.5450   19.2400 C.ar    1  LIG   0.4373   0.1600 
17    H6      -0.5947  -36.7554   18.1915 H       1  LIG   0.0280   0.1500 
18    N3       0.5220  -37.2120   19.8740 N.ar    1  LIG  -0.6893  -0.6200 
19    C10      0.7040  -36.9790   21.1800 C.ar    1  LIG   0.6480   0.4100 
20    N4       1.7670  -37.6730   21.8260 N.pl3   1  LIG  -0.6924  -0.3690 
21    C11      2.7540  -36.8570   22.5840 C.ar    1  LIG   0.5805   0.4100 
22    C12      2.9040  -34.5090   25.6010 C.3     1  LIG  -0.0620   0.1435 
23    H7       2.2235  -33.7630   25.2820 H       1  LIG   0.0570   0.0000 
24    H8       2.4436  -35.1154   26.3371 H       1  LIG   0.0495   0.0000 
25    H9       3.7654  -34.0491   26.0108 H       1  LIG   0.0519   0.0000 
26    O1      -1.2400  -35.9060   23.9770 O.2     1  LIG  -0.6361  -0.5700 
27    C13      2.3440  -38.7570   21.0360 C.3     1  LIG   0.1354   0.0690 
28    H10      3.1238  -38.3754   20.4296 H       1  LIG   0.0981   0.1000 
29    C14      2.9380  -39.8900   21.8010 C.3     1  LIG  -0.1181  -0.2000 
30    H11      3.8890  -40.1268   21.3997 H       1  LIG   0.0732   0.1000 
31    H12      3.0430  -39.6129   22.8177 H       1  LIG   0.0789   0.1000 
32    C15      1.6390  -40.0610   21.0880 C.3     1  LIG  -0.1196  -0.2000 
33    H13      0.6832  -39.9283   21.5242 H       1  LIG   0.0807   0.1000 
34    H14      1.5292  -40.4423   20.1061 H       1  LIG   0.0733   0.1000 
@<TRIPOS>BOND
1     2     1     ar
2     3     2     1
3     4     2     ar
4     5     4     1
5     6     4     ar
6     7     6     ar
7     8     7     1
8     9     8     1
9     10    8     1
10    11    10    1
11    12    11    ar
12    13    12    1
13    14    12    ar
14    15    14    1
15    16    14    ar
16    17    16    1
17    18    16    ar
18    19    11    ar
19    19    18    ar
20    20    19    1
21    21    1     ar
22    21    7     ar
23    21    20    1
24    22    6     1
25    23    22    1
26    24    22    1
27    25    22    1
28    26    10    2
29    27    20    1
30    28    27    1
31    29    27    1
32    30    29    1
33    31    29    1
34    32    27    1
35    32    29    1
36    33    32    1
37    34    32    1
@<TRIPOS>SUBSTRUCTURE
1   LIG    1    
 
########## Name        : 1VRT.lig
########## Description : AM1BCC_CHARGES =  -0.0002 ORIGINAL_CHARGES =  -0.0000

@<TRIPOS>MOLECULE
1VRT.lig
34    37    1     0     0    
SMALL
USER_CHARGES
@<TRIPOS>ATOM
1     N1       4.0540  -36.9310   22.2210 N.ar    1  LIG  -0.6650  -0.6200 
2     C1       4.9660  -36.2380   22.9390 C.ar    1  LIG   0.3947   0.1600 
3     H1       6.0082  -36.2811   22.6707 H       1  LIG   0.0281   0.1500 
4     C2       4.6240  -35.4500   24.0360 C.ar    1  LIG  -0.2334  -0.1500 
5     H2       5.3884  -34.9151   24.5740 H       1  LIG   0.1480   0.1500 
6     C3       3.3050  -35.3690   24.4150 C.ar    1  LIG  -0.0698  -0.1435 
7     C4       2.3460  -36.0770   23.6860 C.ar    1  LIG  -0.0398   0.1170 
8     N2       0.9890  -36.0280   24.1030 N.am    1  LIG  -0.4596  -0.5470 
9     H3       0.7643  -35.9928   25.0860 H       1  LIG   0.3311   0.3700 
10    C5      -0.1450  -36.0180   23.4080 C.2     1  LIG   0.7361   0.5438 
11    C6      -0.1190  -36.0770   21.8860 C.ar    1  LIG  -0.2550   0.0862 
12    C7      -1.1230  -35.3990   21.1890 C.ar    1  LIG  -0.0321  -0.1500 
13    H4      -1.7552  -34.6955   21.7041 H       1  LIG   0.1623   0.1500 
14    C8      -1.2960  -35.6300   19.8690 C.ar    1  LIG  -0.2723  -0.1500 
15    H5      -2.0662  -35.1073   19.3273 H       1  LIG   0.1522   0.1500 
16    C9      -0.4670  -36.5450   19.2400 C.ar    1  LIG   0.4373   0.1600 
17    H6      -0.5947  -36.7554   18.1915 H       1  LIG   0.0280   0.1500 
18    N3       0.5220  -37.2120   19.8740 N.ar    1  LIG  -0.6893  -0.6200 
19    C10      0.7040  -36.9790   21.1800 C.ar    1  LIG   0.6480   0.4100 
20    N4       1.7670  -37.6730   21.8260 N.pl3   1  LIG  -0.6924  -0.3690 
21    C11      2.7540  -36.8570   22.5840 C.ar    1  LIG   0.5805   0.4100 
22    C12      2.9040  -34.5090   25.6010 C.3     1  LIG  -0.0620   0.1435 
23    H7       2.2235  -33.7630   25.2820 H       1  LIG   0.0570   0.0000 
24    H8       2.4436  -35.1154   26.3371 H       1  LIG   0.0495   0.0000 
25    H9       3.7654  -34.0491   26.0108 H       1  LIG   0.0519   0.0000 
26    O1      -1.2400  -35.9060   23.9770 O.2     1  LIG  -0.6361  -0.5700 
27    C13      2.3440  -38.7570   21.0360 C.3     1  LIG   0.1354   0.0690 
28    H10      3.1238  -38.3754   20.4296 H       1  LIG   0.0981   0.1000 
29    C14      2.9380  -39.8900   21.8010 C.3     1  LIG  -0.1181  -0.2000 
30    H11      3.8890  -40.1268   21.3997 H       1  LIG   0.0732   0.1000 
31    H12      3.0430  -39.6129   22.8177 H       1  LIG   0.0789   0.1000 
32    C15      1.6390  -40.0610   21.0880 C.3     1  LIG  -0.1196  -0.2000 
33    H13      0.6832  -39.9283   21.5242 H       1  LIG   0.0807   0.1000 
34    H14      1.5292  -40.4423   20.1061 H       1  LIG   0.0733   0.1000 
@<TRIPOS>BOND
1     2     1     ar
2     3     2     1
3     4     2     ar
4     5     4     1
5     6     4     ar
6     7     6     ar
7     8     7     1
8     9     8     1
9     10    8     1
10    11    10    1
11    12    11    ar
12    13    12    1
13    14    12    ar
14    15    14    1
15    16    14    ar
16    17    16    1
17    18    16    ar
18    19    11    ar
19    19    18    ar
20    20    19    1
21    21    1     ar
22    21    7     ar
23    21    20    1
24    22    6     1
25    23    22    1
26    24    22    1
27    25    22    1
28    26    10    2
29    27    20    1
30    28    27    1
31    29    27    1
32    30    29    1
33    31    29    1
34    32    27    1
35    32    29    1
36    33    32    1
37    34    32    1
@<TRIPOS>SUBSTRUCTURE
1   LIG    1    
 
########## Name        : 1VRT.lig
########## Description : AM1BCC_CHARGES =  -0.0002 ORIGINAL_CHARGES =  -0.0000

@<TRIPOS>MOLECULE
1VRT.lig
34    37    1     0     0    
SMALL
USER_CHARGES
@<TRIPOS>ATOM
1     N1       4.0540  -36.9310   22.2210 N.ar    1  LIG  -0.6650  -0.6200 
2     C1       4.9660  -36.2380   22.9390 C.ar    1  LIG   0.3947   0.1600 
3     H1       6.0082  -36.2811   22.6707 H       1  LIG   0.0281   0.1500 
4     C2       4.6240  -35.4500   24.0360 C.ar    1  LIG  -0.2334  -0.1500 
5     H2       5.3884  -34.9151   24.5740 H       1  LIG   0.1480   0.1500 
6     C3       3.3050  -35.3690   24.4150 C.ar    1  LIG  -0.0698  -0.1435 
7     C4       2.3460  -36.0770   23.6860 C.ar    1  LIG  -0.0398   0.1170 
8     N2       0.9890  -36.0280   24.1030 N.am    1  LIG  -0.4596  -0.5470 
9     H3       0.7643  -35.9928   25.0860 H       1  LIG   0.3311   0.3700 
10    C5      -0.1450  -36.0180   23.4080 C.2     1  LIG   0.7361   0.5438 
11    C6      -0.1190  -36.0770   21.8860 C.ar    1  LIG  -0.2550   0.0862 
12    C7      -1.1230  -35.3990   21.1890 C.ar    1  LIG  -0.0321  -0.1500 
13    H4      -1.7552  -34.6955   21.7041 H       1  LIG   0.1623   0.1500 
14    C8      -1.2960  -35.6300   19.8690 C.ar    1  LIG  -0.2723  -0.1500 
15    H5      -2.0662  -35.1073   19.3273 H       1  LIG   0.1522   0.1500 
16    C9      -0.4670  -36.5450   19.2400 C.ar    1  LIG   0.4373   0.1600 
17    H6      -0.5947  -36.7554   18.1915 H       1  LIG   0.0280   0.1500 
18    N3       0.5220  -37.2120   19.8740 N.ar    1  LIG  -0.6893  -0.6200 
19    C10      0.7040  -36.9790   21.1800 C.ar    1  LIG   0.6480   0.4100 
20    N4       1.7670  -37.6730   21.8260 N.pl3   1  LIG  -0.6924  -0.3690 
21    C11      2.7540  -36.8570   22.5840 C.ar    1  LIG   0.5805   0.4100 
22    C12      2.9040  -34.5090   25.6010 C.3     1  LIG  -0.0620   0.1435 
23    H7       2.2235  -33.7630   25.2820 H       1  LIG   0.0570   0.0000 
24    H8       2.4436  -35.1154   26.3371 H       1  LIG   0.0495   0.0000 
25    H9       3.7654  -34.0491   26.0108 H       1  LIG   0.0519   0.0000 
26    O1      -1.2400  -35.9060   23.9770 O.2     1  LIG  -0.6361  -0.5700 
27    C13      2.3440  -38.7570   21.0360 C.3     1  LIG   0.1354   0.0690 
28    H10      3.1238  -38.3754   20.4296 H       1  LIG   0.0981   0.1000 
29    C14      2.9380  -39.8900   21.8010 C.3     1  LIG  -0.1181  -0.2000 
30    H11      3.8890  -40.1268   21.3997 H       1  LIG   0.0732   0.1000 
31    H12      3.0430  -39.6129   22.8177 H       1  LIG   0.0789   0.1000 
32    C15      1.6390  -40.0610   21.0880 C.3     1  LIG  -0.1196  -0.2000 
33    H13      0.6832  -39.9283   21.5242 H       1  LIG   0.0807   0.1000 
34    H14      1.5292  -40.4423   20.1061 H       1  LIG   0.0733   0.1000 
@<TRIPOS>BOND
1     2     1     ar
2     3     2     1
3     4     2     ar
4     5     4     1
5     6     4     ar
6     7     6     ar
7     8     7     1
8     9     8     1
9     10    8     1
10    11    10    1
11    12    11    ar
12    13    12    1
13    14    12    ar
14    15    14    1
15    16    14    ar
16    17    16    1
17    18    16    ar
18    19    11    ar
19    19    18    ar
20    20    19    1
21    21    1     ar
22    21    7     ar
23    21    20    1
24    22    6     1
25    23    22    1
26    24    22    1
27    25    22    1
28    26    10    2
29    27    20    1
30    28    27    1
31    29    27    1
32    30    29    1
33    31    29    1
34    32    27    1
35    32    29    1
36    33    32    1
37    34    32    1
@<TRIPOS>SUBSTRUCTURE
1   LIG    1    
 
########## Name        : 1VRT.lig
########## Description : AM1BCC_CHARGES =  -0.0002 ORIGINAL_CHARGES =  -0.0000

@<TRIPOS>MOLECULE
1VRT.lig
34    37    1     0     0    
SMALL
USER_CHARGES
@<TRIPOS>ATOM
1     N1       4.0540  -36.9310   22.2210 N.ar    1  LIG  -0.6650  -0.6200 
2     C1       4.9660  -36.2380   22.9390 C.ar    1  LIG   0.3947   0.1600 
3     H1       6.0082  -36.2811   22.6707 H       1  LIG   0.0281   0.1500 
4     C2       4.6240  -35.4500   24.0360 C.ar    1  LIG  -0.2334  -0.1500 
5     H2       5.3884  -34.9151   24.5740 H       1  LIG   0.1480   0.1500 
6     C3       3.3050  -35.3690   24.4150 C.ar    1  LIG  -0.0698  -0.1435 
7     C4       2.3460  -36.0770   23.6860 C.ar    1  LIG  -0.0398   0.1170 
8     N2       0.9890  -36.0280   24.1030 N.am    1  LIG  -0.4596  -0.5470 
9     H3       0.7643  -35.9928   25.0860 H       1  LIG   0.3311   0.3700 
10    C5      -0.1450  -36.0180   23.4080 C.2     1  LIG   0.7361   0.5438 
11    C6      -0.1190  -36.0770   21.8860 C.ar    1  LIG  -0.2550   0.0862 
12    C7      -1.1230  -35.3990   21.1890 C.ar    1  LIG  -0.0321  -0.1500 
13    H4      -1.7552  -34.6955   21.7041 H       1  LIG   0.1623   0.1500 
14    C8      -1.2960  -35.6300   19.8690 C.ar    1  LIG  -0.2723  -0.1500 
15    H5      -2.0662  -35.1073   19.3273 H       1  LIG   0.1522   0.1500 
16    C9      -0.4670  -36.5450   19.2400 C.ar    1  LIG   0.4373   0.1600 
17    H6      -0.5947  -36.7554   18.1915 H       1  LIG   0.0280   0.1500 
18    N3       0.5220  -37.2120   19.8740 N.ar    1  LIG  -0.6893  -0.6200 
19    C10      0.7040  -36.9790   21.1800 C.ar    1  LIG   0.6480   0.4100 
20    N4       1.7670  -37.6730   21.8260 N.pl3   1  LIG  -0.6924  -0.3690 
21    C11      2.7540  -36.8570   22.5840 C.ar    1  LIG   0.5805   0.4100 
22    C12      2.9040  -34.5090   25.6010 C.3     1  LIG  -0.0620   0.1435 
23    H7       2.2235  -33.7630   25.2820 H       1  LIG   0.0570   0.0000 
24    H8       2.4436  -35.1154   26.3371 H       1  LIG   0.0495   0.0000 
25    H9       3.7654  -34.0491   26.0108 H       1  LIG   0.0519   0.0000 
26    O1      -1.2400  -35.9060   23.9770 O.2     1  LIG  -0.6361  -0.5700 
27    C13      2.3440  -38.7570   21.0360 C.3     1  LIG   0.1354   0.0690 
28    H10      3.1238  -38.3754   20.4296 H       1  LIG   0.0981   0.1000 
29    C14      2.9380  -39.8900   21.8010 C.3     1  LIG  -0.1181  -0.2000 
30    H11      3.8890  -40.1268   21.3997 H       1  LIG   0.0732   0.1000 
31    H12      3.0430  -39.6129   22.8177 H       1  LIG   0.0789   0.1000 
32    C15      1.6390  -40.0610   21.0880 C.3     1  LIG  -0.1196  -0.2000 
33    H13      0.6832  -39.9283   21.5242 H       1  LIG   0.0807   0.1000 
34    H14      1.5292  -40.4423   20.1061 H       1  LIG   0.0733   0.1000 
@<TRIPOS>BOND
1     2     1     ar
2     3     2     1
3     4     2     ar
4     5     4     1
5     6     4     ar
6     7     6     ar
7     8     7     1
8     9     8     1
9     10    8     1
10    11    10    1
11    12    11    ar
12    13    12    1
13    14    12    ar
14    15    14    1
15    16    14    ar
16    17    16    1
17    18    16    ar
18    19    11    ar
19    19    18    ar
20    20    19    1
21    21    1     ar
22    21    7     ar
23    21    20    1
24    22    6     1
25    23    22    1
26    24    22    1
27    25    22    1
28    26    10    2
29    27    20    1
30    28    27    1
31    29    27    1
32    30    29    1
33    31    29    1
34    32    27    1
35    32    29    1
36    33    32    1
37    34    32    1
@<TRIPOS>SUBSTRUCTURE
1   LIG    1    
 
########## Name        : 1VRT.lig
########## Description : AM1BCC_CHARGES =  -0.0002 ORIGINAL_CHARGES =  -0.0000

@<TRIPOS>MOLECULE
1VRT.lig
34    37    1     0     0    
SMALL
USER_CHARGES
@<TRIPOS>ATOM
1     N1       4.0540  -36.9310   22.2210 N.ar    1  LIG  -0.6650  -0.6200 
2     C1       4.9660  -36.2380   22.9390 C.ar    1  LIG   0.3947   0.1600 
3     H1       6.0082  -36.2811   22.6707 H       1  LIG   0.0281   0.1500 
4     C2       4.6240  -35.4500   24.0360 C.ar    1  LIG  -0.2334  -0.1500 
5     H2       5.3884  -34.9151   24.5740 H       1  LIG   0.1480   0.1500 
6     C3       3.3050  -35.3690   24.4150 C.ar    1  LIG  -0.0698  -0.1435 
7     C4       2.3460  -36.0770   23.6860 C.ar    1  LIG  -0.0398   0.1170 
8     N2       0.9890  -36.0280   24.1030 N.am    1  LIG  -0.4596  -0.5470 
9     H3       0.7643  -35.9928   25.0860 H       1  LIG   0.3311   0.3700 
10    C5      -0.1450  -36.0180   23.4080 C.2     1  LIG   0.7361   0.5438 
11    C6      -0.1190  -36.0770   21.8860 C.ar    1  LIG  -0.2550   0.0862 
12    C7      -1.1230  -35.3990   21.1890 C.ar    1  LIG  -0.0321  -0.1500 
13    H4      -1.7552  -34.6955   21.7041 H       1  LIG   0.1623   0.1500 
14    C8      -1.2960  -35.6300   19.8690 C.ar    1  LIG  -0.2723  -0.1500 
15    H5      -2.0662  -35.1073   19.3273 H       1  LIG   0.1522   0.1500 
16    C9      -0.4670  -36.5450   19.2400 C.ar    1  LIG   0.4373   0.1600 
17    H6      -0.5947  -36.7554   18.1915 H       1  LIG   0.0280   0.1500 
18    N3       0.5220  -37.2120   19.8740 N.ar    1  LIG  -0.6893  -0.6200 
19    C10      0.7040  -36.9790   21.1800 C.ar    1  LIG   0.6480   0.4100 
20    N4       1.7670  -37.6730   21.8260 N.pl3   1  LIG  -0.6924  -0.3690 
21    C11      2.7540  -36.8570   22.5840 C.ar    1  LIG   0.5805   0.4100 
22    C12      2.9040  -34.5090   25.6010 C.3     1  LIG  -0.0620   0.1435 
23    H7       2.2235  -33.7630   25.2820 H       1  LIG   0.0570   0.0000 
24    H8       2.4436  -35.1154   26.3371 H       1  LIG   0.0495   0.0000 
25    H9       3.7654  -34.0491   26.0108 H       1  LIG   0.0519   0.0000 
26    O1      -1.2400  -35.9060   23.9770 O.2     1  LIG  -0.6361  -0.5700 
27    C13      2.3440  -38.7570   21.0360 C.3     1  LIG   0.1354   0.0690 
28    H10      3.1238  -38.3754   20.4296 H       1  LIG   0.0981   0.1000 
29    C14      2.9380  -39.8900   21.8010 C.3     1  LIG  -0.1181  -0.2000 
30    H11      3.8890  -40.1268   21.3997 H       1  LIG   0.0732   0.1000 
31    H12      3.0430  -39.6129   22.8177 H       1  LIG   0.0789   0.1000 
32    C15      1.6390  -40.0610   21.0880 C.3     1  LIG  -0.1196  -0.2000 
33    H13      0.6832  -39.9283   21.5242 H       1  LIG   0.0807   0.1000 
34    H14      1.5292  -40.4423   20.1061 H       1  LIG   0.0733   0.1000 
@<TRIPOS>BOND
1     2     1     ar
2     3     2     1
3     4     2     ar
4     5     4     1
5     6     4     ar
6     7     6     ar
7     8     7     1
8     9     8     1
9     10    8     1
10    11    10    1
11    12    11    ar
12    13    12    1
13    14    12    ar
14    15    14    1
15    16    14    ar
16    17    16    1
17    18    16    ar
18    19    11    ar
19    19    18    ar
20    20    19    1
21    21    1     ar
22    21    7     ar
23    21    20    1
24    22    6     1
25    23    22    1
26    24    22    1
27    25    22    1
28    26    10    2
29    27    20    1
30    28    27    1
31    29    27    1
32    30    29    1
33    31    29    1
34    32    27    1
35    32    29    1
36    33    32    1
37    34    32    1
@<TRIPOS>SUBSTRUCTURE
1   LIG    1    
 
########## Name        : 1VRT.lig
########## Description : AM1BCC_CHARGES =  -0.0002 ORIGINAL_CHARGES =  -0.0000

@<TRIPOS>MOLECULE
1VRT.lig
34    37    1     0     0    
SMALL
USER_CHARGES
@<TRIPOS>ATOM
1     N1       4.0540  -36.9310   22.2210 N.ar    1  LIG  -0.6650  -0.6200 
2     C1       4.9660  -36.2380   22.9390 C.ar    1  LIG   0.3947   0.1600 
3     H1       6.0082  -36.2811   22.6707 H       1  LIG   0.0281   0.1500 
4     C2       4.6240  -35.4500   24.0360 C.ar    1  LIG  -0.2334  -0.1500 
5     H2       5.3884  -34.9151   24.5740 H       1  LIG   0.1480   0.1500 
6     C3       3.3050  -35.3690   24.4150 C.ar    1  LIG  -0.0698  -0.1435 
7     C4       2.3460  -36.0770   23.6860 C.ar    1  LIG  -0.0398   0.1170 
8     N2       0.9890  -36.0280   24.1030 N.am    1  LIG  -0.4596  -0.5470 
9     H3       0.7643  -35.9928   25.0860 H       1  LIG   0.3311   0.3700 
10    C5      -0.1450  -36.0180   23.4080 C.2     1  LIG   0.7361   0.5438 
11    C6      -0.1190  -36.0770   21.8860 C.ar    1  LIG  -0.2550   0.0862 
12    C7      -1.1230  -35.3990   21.1890 C.ar    1  LIG  -0.0321  -0.1500 
13    H4      -1.7552  -34.6955   21.7041 H       1  LIG   0.1623   0.1500 
14    C8      -1.2960  -35.6300   19.8690 C.ar    1  LIG  -0.2723  -0.1500 
15    H5      -2.0662  -35.1073   19.3273 H       1  LIG   0.1522   0.1500 
16    C9      -0.4670  -36.5450   19.2400 C.ar    1  LIG   0.4373   0.1600 
17    H6      -0.5947  -36.7554   18.1915 H       1  LIG   0.0280   0.1500 
18    N3       0.5220  -37.2120   19.8740 N.ar    1  LIG  -0.6893  -0.6200 
19    C10      0.7040  -36.9790   21.1800 C.ar    1  LIG   0.6480   0.4100 
20    N4       1.7670  -37.6730   21.8260 N.pl3   1  LIG  -0.6924  -0.3690 
21    C11      2.7540  -36.8570   22.5840 C.ar    1  LIG   0.5805   0.4100 
22    C12      2.9040  -34.5090   25.6010 C.3     1  LIG  -0.0620   0.1435 
23    H7       2.2235  -33.7630   25.2820 H       1  LIG   0.0570   0.0000 
24    H8       2.4436  -35.1154   26.3371 H       1  LIG   0.0495   0.0000 
25    H9       3.7654  -34.0491   26.0108 H       1  LIG   0.0519   0.0000 
26    O1      -1.2400  -35.9060   23.9770 O.2     1  LIG  -0.6361  -0.5700 
27    C13      2.3440  -38.7570   21.0360 C.3     1  LIG   0.1354   0.0690 
28    H10      3.1238  -38.3754   20.4296 H       1  LIG   0.0981   0.1000 
29    C14      2.9380  -39.8900   21.8010 C.3     1  LIG  -0.1181  -0.2000 
30    H11      3.8890  -40.1268   21.3997 H       1  LIG   0.0732   0.1000 
31    H12      3.0430  -39.6129   22.8177 H       1  LIG   0.0789   0.1000 
32    C15      1.6390  -40.0610   21.0880 C.3     1  LIG  -0.1196  -0.2000 
33    H13      0.6832  -39.9283   21.5242 H       1  LIG   0.0807   0.1000 
34    H14      1.5292  -40.4423   20.1061 H       1  LIG   0.0733   0.1000 
@<TRIPOS>BOND
1     2     1     ar
2     3     2     1
3     4     2     ar
4     5     4     1
5     6     4     ar
6     7     6     ar
7     8     7     1
8     9     8     1
9     10    8     1
10    11    10    1
11    12    11    ar
12    13    12    1
13    14    12    ar
14    15    14    1
15    16    14    ar
16    17    16    1
17    18    16    ar
18    19    11    ar
19    19    18    ar
20    20    19    1
21    21    1     ar
22    21    7     ar
23    21    20    1
24    22    6     1
25    23    22    1
26    24    22    1
27    25    22    1
28    26    10    2
29    27    20    1
30    28    27    1
31    29    27    1
32    30    29    1
33    31    29    1
34    32    27    1
35    32    29    1
36    33    32    1
37    34    32    1
@<TRIPOS>SUBSTRUCTURE
1   LIG    1    
 
########## Name        : 1VRT.lig
########## Description : AM1BCC_CHARGES =  -0.0002 ORIGINAL_CHARGES =  -0.0000

@<TRIPOS>MOLECULE
1VRT.lig
34    37    1     0     0    
SMALL
USER_CHARGES
@<TRIPOS>ATOM
1     N1       4.0540  -36.9310   22.2210 N.ar    1  LIG  -0.6650  -0.6200 
2     C1       4.9660  -36.2380   22.9390 C.ar    1  LIG   0.3947   0.1600 
3     H1       6.0082  -36.2811   22.6707 H       1  LIG   0.0281   0.1500 
4     C2       4.6240  -35.4500   24.0360 C.ar    1  LIG  -0.2334  -0.1500 
5     H2       5.3884  -34.9151   24.5740 H       1  LIG   0.1480   0.1500 
6     C3       3.3050  -35.3690   24.4150 C.ar    1  LIG  -0.0698  -0.1435 
7     C4       2.3460  -36.0770   23.6860 C.ar    1  LIG  -0.0398   0.1170 
8     N2       0.9890  -36.0280   24.1030 N.am    1  LIG  -0.4596  -0.5470 
9     H3       0.7643  -35.9928   25.0860 H       1  LIG   0.3311   0.3700 
10    C5      -0.1450  -36.0180   23.4080 C.2     1  LIG   0.7361   0.5438 
11    C6      -0.1190  -36.0770   21.8860 C.ar    1  LIG  -0.2550   0.0862 
12    C7      -1.1230  -35.3990   21.1890 C.ar    1  LIG  -0.0321  -0.1500 
13    H4      -1.7552  -34.6955   21.7041 H       1  LIG   0.1623   0.1500 
14    C8      -1.2960  -35.6300   19.8690 C.ar    1  LIG  -0.2723  -0.1500 
15    H5      -2.0662  -35.1073   19.3273 H       1  LIG   0.1522   0.1500 
16    C9      -0.4670  -36.5450   19.2400 C.ar    1  LIG   0.4373   0.1600 
17    H6      -0.5947  -36.7554   18.1915 H       1  LIG   0.0280   0.1500 
18    N3       0.5220  -37.2120   19.8740 N.ar    1  LIG  -0.6893  -0.6200 
19    C10      0.7040  -36.9790   21.1800 C.ar    1  LIG   0.6480   0.4100 
20    N4       1.7670  -37.6730   21.8260 N.pl3   1  LIG  -0.6924  -0.3690 
21    C11      2.7540  -36.8570   22.5840 C.ar    1  LIG   0.5805   0.4100 
22    C12      2.9040  -34.5090   25.6010 C.3     1  LIG  -0.0620   0.1435 
23    H7       2.2235  -33.7630   25.2820 H       1  LIG   0.0570   0.0000 
24    H8       2.4436  -35.1154   26.3371 H       1  LIG   0.0495   0.0000 
25    H9       3.7654  -34.0491   26.0108 H       1  LIG   0.0519   0.0000 
26    O1      -1.2400  -35.9060   23.9770 O.2     1  LIG  -0.6361  -0.5700 
27    C13      2.3440  -38.7570   21.0360 C.3     1  LIG   0.1354   0.0690 
28    H10      3.1238  -38.3754   20.4296 H       1  LIG   0.0981   0.1000 
29    C14      2.9380  -39.8900   21.8010 C.3     1  LIG  -0.1181  -0.2000 
30    H11      3.8890  -40.1268   21.3997 H       1  LIG   0.0732   0.1000 
31    H12      3.0430  -39.6129   22.8177 H       1  LIG   0.0789   0.1000 
32    C15      1.6390  -40.0610   21.0880 C.3     1  LIG  -0.1196  -0.2000 
33    H13      0.6832  -39.9283   21.5242 H       1  LIG   0.0807   0.1000 
34    H14      1.5292  -40.4423   20.1061 H       1  LIG   0.0733   0.1000 
@<TRIPOS>BOND
1     2     1     ar
2     3     2     1
3     4     2     ar
4     5     4     1
5     6     4     ar
6     7     6     ar
7     8     7     1
8     9     8     1
9     10    8     1
10    11    10    1
11    12    11    ar
12    13    12    1
13    14    12    ar
14    15    14    1
15    16    14    ar
16    17    16    1
17    18    16    ar
18    19    11    ar
19    19    18    ar
20    20    19    1
21    21    1     ar
22    21    7     ar
23    21    20    1
24    22    6     1
25    23    22    1
26    24    22    1
27    25    22    1
28    26    10    2
29    27    20    1
30    28    27    1
31    29    27    1
32    30    29    1
33    31    29    1
34    32    27    1
35    32    29    1
36    33    32    1
37    34    32    1
@<TRIPOS>SUBSTRUCTURE
1   LIG    1    
 
########## Name        : 1VRT.lig
########## Description : AM1BCC_CHARGES =  -0.0002 ORIGINAL_CHARGES =  -0.0000

@<TRIPOS>MOLECULE
1VRT.lig
34    37    1     0     0    
SMALL
USER_CHARGES
@<TRIPOS>ATOM
1     N1       4.0540  -36.9310   22.2210 N.ar    1  LIG  -0.6650  -0.6200 
2     C1       4.9660  -36.2380   22.9390 C.ar    1  LIG   0.3947   0.1600 
3     H1       6.0082  -36.2811   22.6707 H       1  LIG   0.0281   0.1500 
4     C2       4.6240  -35.4500   24.0360 C.ar    1  LIG  -0.2334  -0.1500 
5     H2       5.3884  -34.9151   24.5740 H       1  LIG   0.1480   0.1500 
6     C3       3.3050  -35.3690   24.4150 C.ar    1  LIG  -0.0698  -0.1435 
7     C4       2.3460  -36.0770   23.6860 C.ar    1  LIG  -0.0398   0.1170 
8     N2       0.9890  -36.0280   24.1030 N.am    1  LIG  -0.4596  -0.5470 
9     H3       0.7643  -35.9928   25.0860 H       1  LIG   0.3311   0.3700 
10    C5      -0.1450  -36.0180   23.4080 C.2     1  LIG   0.7361   0.5438 
11    C6      -0.1190  -36.0770   21.8860 C.ar    1  LIG  -0.2550   0.0862 
12    C7      -1.1230  -35.3990   21.1890 C.ar    1  LIG  -0.0321  -0.1500 
13    H4      -1.7552  -34.6955   21.7041 H       1  LIG   0.1623   0.1500 
14    C8      -1.2960  -35.6300   19.8690 C.ar    1  LIG  -0.2723  -0.1500 
15    H5      -2.0662  -35.1073   19.3273 H       1  LIG   0.1522   0.1500 
16    C9      -0.4670  -36.5450   19.2400 C.ar    1  LIG   0.4373   0.1600 
17    H6      -0.5947  -36.7554   18.1915 H       1  LIG   0.0280   0.1500 
18    N3       0.5220  -37.2120   19.8740 N.ar    1  LIG  -0.6893  -0.6200 
19    C10      0.7040  -36.9790   21.1800 C.ar    1  LIG   0.6480   0.4100 
20    N4       1.7670  -37.6730   21.8260 N.pl3   1  LIG  -0.6924  -0.3690 
21    C11      2.7540  -36.8570   22.5840 C.ar    1  LIG   0.5805   0.4100 
22    C12      2.9040  -34.5090   25.6010 C.3     1  LIG  -0.0620   0.1435 
23    H7       2.2235  -33.7630   25.2820 H       1  LIG   0.0570   0.0000 
24    H8       2.4436  -35.1154   26.3371 H       1  LIG   0.0495   0.0000 
25    H9       3.7654  -34.0491   26.0108 H       1  LIG   0.0519   0.0000 
26    O1      -1.2400  -35.9060   23.9770 O.2     1  LIG  -0.6361  -0.5700 
27    C13      2.3440  -38.7570   21.0360 C.3     1  LIG   0.1354   0.0690 
28    H10      3.1238  -38.3754   20.4296 H       1  LIG   0.0981   0.1000 
29    C14      2.9380  -39.8900   21.8010 C.3     1  LIG  -0.1181  -0.2000 
30    H11      3.8890  -40.1268   21.3997 H       1  LIG   0.0732   0.1000 
31    H12      3.0430  -39.6129   22.8177 H       1  LIG   0.0789   0.1000 
32    C15      1.6390  -40.0610   21.0880 C.3     1  LIG  -0.1196  -0.2000 
33    H13      0.6832  -39.9283   21.5242 H       1  LIG   0.0807   0.1000 
34    H14      1.5292  -40.4423   20.1061 H       1  LIG   0.0733   0.1000 
@<TRIPOS>BOND
1     2     1     ar
2     3     2     1
3     4     2     ar
4     5     4     1
5     6     4     ar
6     7     6     ar
7     8     7     1
8     9     8     1
9     10    8     1
10    11    10    1
11    12    11    ar
12    13    12    1
13    14    12    ar
14    15    14    1
15    16    14    ar
16    17    16    1
17    18    16    ar
18    19    11    ar
19    19    18    ar
20    20    19    1
21    21    1     ar
22    21    7     ar
23    21    20    1
24    22    6     1
25    23    22    1
26    24    22    1
27    25    22    1
28    26    10    2
29    27    20    1
30    28    27    1
31    29    27    1
32    30    29    1
33    31    29    1
34    32    27    1
35    32    29    1
36    33    32    1
37    34    32    1
@<TRIPOS>SUBSTRUCTURE
1   LIG    1    
 
########## Name        : 1VRT.lig
########## Description : AM1BCC_CHARGES =  -0.0002 ORIGINAL_CHARGES =  -0.0000

@<TRIPOS>MOLECULE
1VRT.lig
34    37    1     0     0    
SMALL
USER_CHARGES
@<TRIPOS>ATOM
1     N1       4.0540  -36.9310   22.2210 N.ar    1  LIG  -0.6650  -0.6200 
2     C1       4.9660  -36.2380   22.9390 C.ar    1  LIG   0.3947   0.1600 
3     H1       6.0082  -36.2811   22.6707 H       1  LIG   0.0281   0.1500 
4     C2       4.6240  -35.4500   24.0360 C.ar    1  LIG  -0.2334  -0.1500 
5     H2       5.3884  -34.9151   24.5740 H       1  LIG   0.1480   0.1500 
6     C3       3.3050  -35.3690   24.4150 C.ar    1  LIG  -0.0698  -0.1435 
7     C4       2.3460  -36.0770   23.6860 C.ar    1  LIG  -0.0398   0.1170 
8     N2       0.9890  -36.0280   24.1030 N.am    1  LIG  -0.4596  -0.5470 
9     H3       0.7643  -35.9928   25.0860 H       1  LIG   0.3311   0.3700 
10    C5      -0.1450  -36.0180   23.4080 C.2     1  LIG   0.7361   0.5438 
11    C6      -0.1190  -36.0770   21.8860 C.ar    1  LIG  -0.2550   0.0862 
12    C7      -1.1230  -35.3990   21.1890 C.ar    1  LIG  -0.0321  -0.1500 
13    H4      -1.7552  -34.6955   21.7041 H       1  LIG   0.1623   0.1500 
14    C8      -1.2960  -35.6300   19.8690 C.ar    1  LIG  -0.2723  -0.1500 
15    H5      -2.0662  -35.1073   19.3273 H       1  LIG   0.1522   0.1500 
16    C9      -0.4670  -36.5450   19.2400 C.ar    1  LIG   0.4373   0.1600 
17    H6      -0.5947  -36.7554   18.1915 H       1  LIG   0.0280   0.1500 
18    N3       0.5220  -37.2120   19.8740 N.ar    1  LIG  -0.6893  -0.6200 
19    C10      0.7040  -36.9790   21.1800 C.ar    1  LIG   0.6480   0.4100 
20    N4       1.7670  -37.6730   21.8260 N.pl3   1  LIG  -0.6924  -0.3690 
21    C11      2.7540  -36.8570   22.5840 C.ar    1  LIG   0.5805   0.4100 
22    C12      2.9040  -34.5090   25.6010 C.3     1  LIG  -0.0620   0.1435 
23    H7       2.2235  -33.7630   25.2820 H       1  LIG   0.0570   0.0000 
24    H8       2.4436  -35.1154   26.3371 H       1  LIG   0.0495   0.0000 
25    H9       3.7654  -34.0491   26.0108 H       1  LIG   0.0519   0.0000 
26    O1      -1.2400  -35.9060   23.9770 O.2     1  LIG  -0.6361  -0.5700 
27    C13      2.3440  -38.7570   21.0360 C.3     1  LIG   0.1354   0.0690 
28    H10      3.1238  -38.3754   20.4296 H       1  LIG   0.0981   0.1000 
29    C14      2.9380  -39.8900   21.8010 C.3     1  LIG  -0.1181  -0.2000 
30    H11      3.8890  -40.1268   21.3997 H       1  LIG   0.0732   0.1000 
31    H12      3.0430  -39.6129   22.8177 H       1  LIG   0.0789   0.1000 
32    C15      1.6390  -40.0610   21.0880 C.3     1  LIG  -0.1196  -0.2000 
33    H13      0.6832  -39.9283   21.5242 H       1  LIG   0.0807   0.1000 
34    H14      1.5292  -40.4423   20.1061 H       1  LIG   0.0733   0.1000 
@<TRIPOS>BOND
1     2     1     ar
2     3     2     1
3     4     2     ar
4     5     4     1
5     6     4     ar
6     7     6     ar
7     8     7     1
8     9     8     1
9     10    8     1
10    11    10    1
11    12    11    ar
12    13    12    1
13    14    12    ar
14    15    14    1
15    16    14    ar
16    17    16    1
17    18    16    ar
18    19    11    ar
19    19    18    ar
20    20    19    1
21    21    1     ar
22    21    7     ar
23    21    20    1
24    22    6     1
25    23    22    1
26    24    22    1
27    25    22    1
28    26    10    2
29    27    20    1
30    28    27    1
31    29    27    1
32    30    29    1
33    31    29    1
34    32    27    1
35    32    29    1
36    33    32    1
37    34    32    1
@<TRIPOS>SUBSTRUCTURE
1   LIG    1    
 
########## Name        : 1VRT.lig
########## Description : AM1BCC_CHARGES =  -0.0002 ORIGINAL_CHARGES =  -0.0000

@<TRIPOS>MOLECULE
1VRT.lig
34    37    1     0     0    
SMALL
USER_CHARGES
@<TRIPOS>ATOM
1     N1       4.0540  -36.9310   22.2210 N.ar    1  LIG  -0.6650  -0.6200 
2     C1       4.9660  -36.2380   22.9390 C.ar    1  LIG   0.3947   0.1600 
3     H1       6.0082  -36.2811   22.6707 H       1  LIG   0.0281   0.1500 
4     C2       4.6240  -35.4500   24.0360 C.ar    1  LIG  -0.2334  -0.1500 
5     H2       5.3884  -34.9151   24.5740 H       1  LIG   0.1480   0.1500 
6     C3       3.3050  -35.3690   24.4150 C.ar    1  LIG  -0.0698  -0.1435 
7     C4       2.3460  -36.0770   23.6860 C.ar    1  LIG  -0.0398   0.1170 
8     N2       0.9890  -36.0280   24.1030 N.am    1  LIG  -0.4596  -0.5470 
9     H3       0.7643  -35.9928   25.0860 H       1  LIG   0.3311   0.3700 
10    C5      -0.1450  -36.0180   23.4080 C.2     1  LIG   0.7361   0.5438 
11    C6      -0.1190  -36.0770   21.8860 C.ar    1  LIG  -0.2550   0.0862 
12    C7      -1.1230  -35.3990   21.1890 C.ar    1  LIG  -0.0321  -0.1500 
13    H4      -1.7552  -34.6955   21.7041 H       1  LIG   0.1623   0.1500 
14    C8      -1.2960  -35.6300   19.8690 C.ar    1  LIG  -0.2723  -0.1500 
15    H5      -2.0662  -35.1073   19.3273 H       1  LIG   0.1522   0.1500 
16    C9      -0.4670  -36.5450   19.2400 C.ar    1  LIG   0.4373   0.1600 
17    H6      -0.5947  -36.7554   18.1915 H       1  LIG   0.0280   0.1500 
18    N3       0.5220  -37.2120   19.8740 N.ar    1  LIG  -0.6893  -0.6200 
19    C10      0.7040  -36.9790   21.1800 C.ar    1  LIG   0.6480   0.4100 
20    N4       1.7670  -37.6730   21.8260 N.pl3   1  LIG  -0.6924  -0.3690 
21    C11      2.7540  -36.8570   22.5840 C.ar    1  LIG   0.5805   0.4100 
22    C12      2.9040  -34.5090   25.6010 C.3     1  LIG  -0.0620   0.1435 
23    H7       2.2235  -33.7630   25.2820 H       1  LIG   0.0570   0.0000 
24    H8       2.4436  -35.1154   26.3371 H       1  LIG   0.0495   0.0000 
25    H9       3.7654  -34.0491   26.0108 H       1  LIG   0.0519   0.0000 
26    O1      -1.2400  -35.9060   23.9770 O.2     1  LIG  -0.6361  -0.5700 
27    C13      2.3440  -38.7570   21.0360 C.3     1  LIG   0.1354   0.0690 
28    H10      3.1238  -38.3754   20.4296 H       1  LIG   0.0981   0.1000 
29    C14      2.9380  -39.8900   21.8010 C.3     1  LIG  -0.1181  -0.2000 
30    H11      3.8890  -40.1268   21.3997 H       1  LIG   0.0732   0.1000 
31    H12      3.0430  -39.6129   22.8177 H       1  LIG   0.0789   0.1000 
32    C15      1.6390  -40.0610   21.0880 C.3     1  LIG  -0.1196  -0.2000 
33    H13      0.6832  -39.9283   21.5242 H       1  LIG   0.0807   0.1000 
34    H14      1.5292  -40.4423   20.1061 H       1  LIG   0.0733   0.1000 
@<TRIPOS>BOND
1     2     1     ar
2     3     2     1
3     4     2     ar
4     5     4     1
5     6     4     ar
6     7     6     ar
7     8     7     1
8     9     8     1
9     10    8     1
10    11    10    1
11    12    11    ar
12    13    12    1
13    14    12    ar
14    15    14    1
15    16    14    ar
16    17    16    1
17    18    16    ar
18    19    11    ar
19    19    18    ar
20    20    19    1
21    21    1     ar
22    21    7     ar
23    21    20    1
24    22    6     1
25    23    22    1
26    24    22    1
27    25    22    1
28    26    10    2
29    27    20    1
30    28    27    1
31    29    27    1
32    30    29    1
33    31    29    1
34    32    27    1
35    32    29    1
36    33    32    1
37    34    32    1
@<TRIPOS>SUBSTRUCTURE
1   LIG    1    
 
########## Name        : 1VRT.lig
########## Description : AM1BCC_CHARGES =  -0.0002 ORIGINAL_CHARGES =  -0.0000

@<TRIPOS>MOLECULE
1VRT.lig
34    37    1     0     0    
SMALL
USER_CHARGES
@<TRIPOS>ATOM
1     N1       4.0540  -36.9310   22.2210 N.ar    1  LIG  -0.6650  -0.6200 
2     C1       4.9660  -36.2380   22.9390 C.ar    1  LIG   0.3947   0.1600 
3     H1       6.0082  -36.2811   22.6707 H       1  LIG   0.0281   0.1500 
4     C2       4.6240  -35.4500   24.0360 C.ar    1  LIG  -0.2334  -0.1500 
5     H2       5.3884  -34.9151   24.5740 H       1  LIG   0.1480   0.1500 
6     C3       3.3050  -35.3690   24.4150 C.ar    1  LIG  -0.0698  -0.1435 
7     C4       2.3460  -36.0770   23.6860 C.ar    1  LIG  -0.0398   0.1170 
8     N2       0.9890  -36.0280   24.1030 N.am    1  LIG  -0.4596  -0.5470 
9     H3       0.7643  -35.9928   25.0860 H       1  LIG   0.3311   0.3700 
10    C5      -0.1450  -36.0180   23.4080 C.2     1  LIG   0.7361   0.5438 
11    C6      -0.1190  -36.0770   21.8860 C.ar    1  LIG  -0.2550   0.0862 
12    C7      -1.1230  -35.3990   21.1890 C.ar    1  LIG  -0.0321  -0.1500 
13    H4      -1.7552  -34.6955   21.7041 H       1  LIG   0.1623   0.1500 
14    C8      -1.2960  -35.6300   19.8690 C.ar    1  LIG  -0.2723  -0.1500 
15    H5      -2.0662  -35.1073   19.3273 H       1  LIG   0.1522   0.1500 
16    C9      -0.4670  -36.5450   19.2400 C.ar    1  LIG   0.4373   0.1600 
17    H6      -0.5947  -36.7554   18.1915 H       1  LIG   0.0280   0.1500 
18    N3       0.5220  -37.2120   19.8740 N.ar    1  LIG  -0.6893  -0.6200 
19    C10      0.7040  -36.9790   21.1800 C.ar    1  LIG   0.6480   0.4100 
20    N4       1.7670  -37.6730   21.8260 N.pl3   1  LIG  -0.6924  -0.3690 
21    C11      2.7540  -36.8570   22.5840 C.ar    1  LIG   0.5805   0.4100 
22    C12      2.9040  -34.5090   25.6010 C.3     1  LIG  -0.0620   0.1435 
23    H7       2.2235  -33.7630   25.2820 H       1  LIG   0.0570   0.0000 
24    H8       2.4436  -35.1154   26.3371 H       1  LIG   0.0495   0.0000 
25    H9       3.7654  -34.0491   26.0108 H       1  LIG   0.0519   0.0000 
26    O1      -1.2400  -35.9060   23.9770 O.2     1  LIG  -0.6361  -0.5700 
27    C13      2.3440  -38.7570   21.0360 C.3     1  LIG   0.1354   0.0690 
28    H10      3.1238  -38.3754   20.4296 H       1  LIG   0.0981   0.1000 
29    C14      2.9380  -39.8900   21.8010 C.3     1  LIG  -0.1181  -0.2000 
30    H11      3.8890  -40.1268   21.3997 H       1  LIG   0.0732   0.1000 
31    H12      3.0430  -39.6129   22.8177 H       1  LIG   0.0789   0.1000 
32    C15      1.6390  -40.0610   21.0880 C.3     1  LIG  -0.1196  -0.2000 
33    H13      0.6832  -39.9283   21.5242 H       1  LIG   0.0807   0.1000 
34    H14      1.5292  -40.4423   20.1061 H       1  LIG   0.0733   0.1000 
@<TRIPOS>BOND
1     2     1     ar
2     3     2     1
3     4     2     ar
4     5     4     1
5     6     4     ar
6     7     6     ar
7     8     7     1
8     9     8     1
9     10    8     1
10    11    10    1
11    12    11    ar
12    13    12    1
13    14    12    ar
14    15    14    1
15    16    14    ar
16    17    16    1
17    18    16    ar
18    19    11    ar
19    19    18    ar
20    20    19    1
21    21    1     ar
22    21    7     ar
23    21    20    1
24    22    6     1
25    23    22    1
26    24    22    1
27    25    22    1
28    26    10    2
29    27    20    1
30    28    27    1
31    29    27    1
32    30    29    1
33    31    29    1
34    32    27    1
35    32    29    1
36    33    32    1
37    34    32    1
@<TRIPOS>SUBSTRUCTURE
1   LIG    1    
 
########## Name        : 1VRT.lig
########## Description : AM1BCC_CHARGES =  -0.0002 ORIGINAL_CHARGES =  -0.0000

@<TRIPOS>MOLECULE
1VRT.lig
34    37    1     0     0    
SMALL
USER_CHARGES
@<TRIPOS>ATOM
1     N1       4.0540  -36.9310   22.2210 N.ar    1  LIG  -0.6650  -0.6200 
2     C1       4.9660  -36.2380   22.9390 C.ar    1  LIG   0.3947   0.1600 
3     H1       6.0082  -36.2811   22.6707 H       1  LIG   0.0281   0.1500 
4     C2       4.6240  -35.4500   24.0360 C.ar    1  LIG  -0.2334  -0.1500 
5     H2       5.3884  -34.9151   24.5740 H       1  LIG   0.1480   0.1500 
6     C3       3.3050  -35.3690   24.4150 C.ar    1  LIG  -0.0698  -0.1435 
7     C4       2.3460  -36.0770   23.6860 C.ar    1  LIG  -0.0398   0.1170 
8     N2       0.9890  -36.0280   24.1030 N.am    1  LIG  -0.4596  -0.5470 
9     H3       0.7643  -35.9928   25.0860 H       1  LIG   0.3311   0.3700 
10    C5      -0.1450  -36.0180   23.4080 C.2     1  LIG   0.7361   0.5438 
11    C6      -0.1190  -36.0770   21.8860 C.ar    1  LIG  -0.2550   0.0862 
12    C7      -1.1230  -35.3990   21.1890 C.ar    1  LIG  -0.0321  -0.1500 
13    H4      -1.7552  -34.6955   21.7041 H       1  LIG   0.1623   0.1500 
14    C8      -1.2960  -35.6300   19.8690 C.ar    1  LIG  -0.2723  -0.1500 
15    H5      -2.0662  -35.1073   19.3273 H       1  LIG   0.1522   0.1500 
16    C9      -0.4670  -36.5450   19.2400 C.ar    1  LIG   0.4373   0.1600 
17    H6      -0.5947  -36.7554   18.1915 H       1  LIG   0.0280   0.1500 
18    N3       0.5220  -37.2120   19.8740 N.ar    1  LIG  -0.6893  -0.6200 
19    C10      0.7040  -36.9790   21.1800 C.ar    1  LIG   0.6480   0.4100 
20    N4       1.7670  -37.6730   21.8260 N.pl3   1  LIG  -0.6924  -0.3690 
21    C11      2.7540  -36.8570   22.5840 C.ar    1  LIG   0.5805   0.4100 
22    C12      2.9040  -34.5090   25.6010 C.3     1  LIG  -0.0620   0.1435 
23    H7       2.2235  -33.7630   25.2820 H       1  LIG   0.0570   0.0000 
24    H8       2.4436  -35.1154   26.3371 H       1  LIG   0.0495   0.0000 
25    H9       3.7654  -34.0491   26.0108 H       1  LIG   0.0519   0.0000 
26    O1      -1.2400  -35.9060   23.9770 O.2     1  LIG  -0.6361  -0.5700 
27    C13      2.3440  -38.7570   21.0360 C.3     1  LIG   0.1354   0.0690 
28    H10      3.1238  -38.3754   20.4296 H       1  LIG   0.0981   0.1000 
29    C14      2.9380  -39.8900   21.8010 C.3     1  LIG  -0.1181  -0.2000 
30    H11      3.8890  -40.1268   21.3997 H       1  LIG   0.0732   0.1000 
31    H12      3.0430  -39.6129   22.8177 H       1  LIG   0.0789   0.1000 
32    C15      1.6390  -40.0610   21.0880 C.3     1  LIG  -0.1196  -0.2000 
33    H13      0.6832  -39.9283   21.5242 H       1  LIG   0.0807   0.1000 
34    H14      1.5292  -40.4423   20.1061 H       1  LIG   0.0733   0.1000 
@<TRIPOS>BOND
1     2     1     ar
2     3     2     1
3     4     2     ar
4     5     4     1
5     6     4     ar
6     7     6     ar
7     8     7     1
8     9     8     1
9     10    8     1
10    11    10    1
11    12    11    ar
12    13    12    1
13    14    12    ar
14    15    14    1
15    16    14    ar
16    17    16    1
17    18    16    ar
18    19    11    ar
19    19    18    ar
20    20    19    1
21    21    1     ar
22    21    7     ar
23    21    20    1
24    22    6     1
25    23    22    1
26    24    22    1
27    25    22    1
28    26    10    2
29    27    20    1
30    28    27    1
31    29    27    1
32    30    29    1
33    31    29    1
34    32    27    1
35    32    29    1
36    33    32    1
37    34    32    1
@<TRIPOS>SUBSTRUCTURE
1   LIG    1    
 
########## Name        : 1VRT.lig
########## Description : AM1BCC_CHARGES =  -0.0002 ORIGINAL_CHARGES =  -0.0000

@<TRIPOS>MOLECULE
1VRT.lig
34    37    1     0     0    
SMALL
USER_CHARGES
@<TRIPOS>ATOM
1     N1       4.0540  -36.9310   22.2210 N.ar    1  LIG  -0.6650  -0.6200 
2     C1       4.9660  -36.2380   22.9390 C.ar    1  LIG   0.3947   0.1600 
3     H1       6.0082  -36.2811   22.6707 H       1  LIG   0.0281   0.1500 
4     C2       4.6240  -35.4500   24.0360 C.ar    1  LIG  -0.2334  -0.1500 
5     H2       5.3884  -34.9151   24.5740 H       1  LIG   0.1480   0.1500 
6     C3       3.3050  -35.3690   24.4150 C.ar    1  LIG  -0.0698  -0.1435 
7     C4       2.3460  -36.0770   23.6860 C.ar    1  LIG  -0.0398   0.1170 
8     N2       0.9890  -36.0280   24.1030 N.am    1  LIG  -0.4596  -0.5470 
9     H3       0.7643  -35.9928   25.0860 H       1  LIG   0.3311   0.3700 
10    C5      -0.1450  -36.0180   23.4080 C.2     1  LIG   0.7361   0.5438 
11    C6      -0.1190  -36.0770   21.8860 C.ar    1  LIG  -0.2550   0.0862 
12    C7      -1.1230  -35.3990   21.1890 C.ar    1  LIG  -0.0321  -0.1500 
13    H4      -1.7552  -34.6955   21.7041 H       1  LIG   0.1623   0.1500 
14    C8      -1.2960  -35.6300   19.8690 C.ar    1  LIG  -0.2723  -0.1500 
15    H5      -2.0662  -35.1073   19.3273 H       1  LIG   0.1522   0.1500 
16    C9      -0.4670  -36.5450   19.2400 C.ar    1  LIG   0.4373   0.1600 
17    H6      -0.5947  -36.7554   18.1915 H       1  LIG   0.0280   0.1500 
18    N3       0.5220  -37.2120   19.8740 N.ar    1  LIG  -0.6893  -0.6200 
19    C10      0.7040  -36.9790   21.1800 C.ar    1  LIG   0.6480   0.4100 
20    N4       1.7670  -37.6730   21.8260 N.pl3   1  LIG  -0.6924  -0.3690 
21    C11      2.7540  -36.8570   22.5840 C.ar    1  LIG   0.5805   0.4100 
22    C12      2.9040  -34.5090   25.6010 C.3     1  LIG  -0.0620   0.1435 
23    H7       2.2235  -33.7630   25.2820 H       1  LIG   0.0570   0.0000 
24    H8       2.4436  -35.1154   26.3371 H       1  LIG   0.0495   0.0000 
25    H9       3.7654  -34.0491   26.0108 H       1  LIG   0.0519   0.0000 
26    O1      -1.2400  -35.9060   23.9770 O.2     1  LIG  -0.6361  -0.5700 
27    C13      2.3440  -38.7570   21.0360 C.3     1  LIG   0.1354   0.0690 
28    H10      3.1238  -38.3754   20.4296 H       1  LIG   0.0981   0.1000 
29    C14      2.9380  -39.8900   21.8010 C.3     1  LIG  -0.1181  -0.2000 
30    H11      3.8890  -40.1268   21.3997 H       1  LIG   0.0732   0.1000 
31    H12      3.0430  -39.6129   22.8177 H       1  LIG   0.0789   0.1000 
32    C15      1.6390  -40.0610   21.0880 C.3     1  LIG  -0.1196  -0.2000 
33    H13      0.6832  -39.9283   21.5242 H       1  LIG   0.0807   0.1000 
34    H14      1.5292  -40.4423   20.1061 H       1  LIG   0.0733   0.1000 
@<TRIPOS>BOND
1     2     1     ar
2     3     2     1
3     4     2     ar
4     5     4     1
5     6     4     ar
6     7     6     ar
7     8     7     1
8     9     8     1
9     10    8     1
10    11    10    1
11    12    11    ar
12    13    12    1
13    14    12    ar
14    15    14    1
15    16    14    ar
16    17    16    1
17    18    16    ar
18    19    11    ar
19    19    18    ar
20    20    19    1
21    21    1     ar
22    21    7     ar
23    21    20    1
24    22    6     1
25    23    22    1
26    24    22    1
27    25    22    1
28    26    10    2
29    27    20    1
30    28    27    1
31    29    27    1
32    30    29    1
33    31    29    1
34    32    27    1
35    32    29    1
36    33    32    1
37    34    32    1
@<TRIPOS>SUBSTRUCTURE
1   LIG    1    
 
########## Name        : 1VRT.lig
########## Description : AM1BCC_CHARGES =  -0.0002 ORIGINAL_CHARGES =  -0.0000

@<TRIPOS>MOLECULE
1VRT.lig
34    37    1     0     0    
SMALL
USER_CHARGES
@<TRIPOS>ATOM
1     N1       4.0540  -36.9310   22.2210 N.ar    1  LIG  -0.6650  -0.6200 
2     C1       4.9660  -36.2380   22.9390 C.ar    1  LIG   0.3947   0.1600 
3     H1       6.0082  -36.2811   22.6707 H       1  LIG   0.0281   0.1500 
4     C2       4.6240  -35.4500   24.0360 C.ar    1  LIG  -0.2334  -0.1500 
5     H2       5.3884  -34.9151   24.5740 H       1  LIG   0.1480   0.1500 
6     C3       3.3050  -35.3690   24.4150 C.ar    1  LIG  -0.0698  -0.1435 
7     C4       2.3460  -36.0770   23.6860 C.ar    1  LIG  -0.0398   0.1170 
8     N2       0.9890  -36.0280   24.1030 N.am    1  LIG  -0.4596  -0.5470 
9     H3       0.7643  -35.9928   25.0860 H       1  LIG   0.3311   0.3700 
10    C5      -0.1450  -36.0180   23.4080 C.2     1  LIG   0.7361   0.5438 
11    C6      -0.1190  -36.0770   21.8860 C.ar    1  LIG  -0.2550   0.0862 
12    C7      -1.1230  -35.3990   21.1890 C.ar    1  LIG  -0.0321  -0.1500 
13    H4      -1.7552  -34.6955   21.7041 H       1  LIG   0.1623   0.1500 
14    C8      -1.2960  -35.6300   19.8690 C.ar    1  LIG  -0.2723  -0.1500 
15    H5      -2.0662  -35.1073   19.3273 H       1  LIG   0.1522   0.1500 
16    C9      -0.4670  -36.5450   19.2400 C.ar    1  LIG   0.4373   0.1600 
17    H6      -0.5947  -36.7554   18.1915 H       1  LIG   0.0280   0.1500 
18    N3       0.5220  -37.2120   19.8740 N.ar    1  LIG  -0.6893  -0.6200 
19    C10      0.7040  -36.9790   21.1800 C.ar    1  LIG   0.6480   0.4100 
20    N4       1.7670  -37.6730   21.8260 N.pl3   1  LIG  -0.6924  -0.3690 
21    C11      2.7540  -36.8570   22.5840 C.ar    1  LIG   0.5805   0.4100 
22    C12      2.9040  -34.5090   25.6010 C.3     1  LIG  -0.0620   0.1435 
23    H7       2.2235  -33.7630   25.2820 H       1  LIG   0.0570   0.0000 
24    H8       2.4436  -35.1154   26.3371 H       1  LIG   0.0495   0.0000 
25    H9       3.7654  -34.0491   26.0108 H       1  LIG   0.0519   0.0000 
26    O1      -1.2400  -35.9060   23.9770 O.2     1  LIG  -0.6361  -0.5700 
27    C13      2.3440  -38.7570   21.0360 C.3     1  LIG   0.1354   0.0690 
28    H10      3.1238  -38.3754   20.4296 H       1  LIG   0.0981   0.1000 
29    C14      2.9380  -39.8900   21.8010 C.3     1  LIG  -0.1181  -0.2000 
30    H11      3.8890  -40.1268   21.3997 H       1  LIG   0.0732   0.1000 
31    H12      3.0430  -39.6129   22.8177 H       1  LIG   0.0789   0.1000 
32    C15      1.6390  -40.0610   21.0880 C.3     1  LIG  -0.1196  -0.2000 
33    H13      0.6832  -39.9283   21.5242 H       1  LIG   0.0807   0.1000 
34    H14      1.5292  -40.4423   20.1061 H       1  LIG   0.0733   0.1000 
@<TRIPOS>BOND
1     2     1     ar
2     3     2     1
3     4     2     ar
4     5     4     1
5     6     4     ar
6     7     6     ar
7     8     7     1
8     9     8     1
9     10    8     1
10    11    10    1
11    12    11    ar
12    13    12    1
13    14    12    ar
14    15    14    1
15    16    14    ar
16    17    16    1
17    18    16    ar
18    19    11    ar
19    19    18    ar
20    20    19    1
21    21    1     ar
22    21    7     ar
23    21    20    1
24    22    6     1
25    23    22    1
26    24    22    1
27    25    22    1
28    26    10    2
29    27    20    1
30    28    27    1
31    29    27    1
32    30    29    1
33    31    29    1
34    32    27    1
35    32    29    1
36    33    32    1
37    34    32    1
@<TRIPOS>SUBSTRUCTURE
1   LIG    1    
 
########## Name        : 1VRT.lig
########## Description : AM1BCC_CHARGES =  -0.0002 ORIGINAL_CHARGES =  -0.0000

@<TRIPOS>MOLECULE
1VRT.lig
34    37    1     0     0    
SMALL
USER_CHARGES
@<TRIPOS>ATOM
1     N1       4.0540  -36.9310   22.2210 N.ar    1  LIG  -0.6650  -0.6200 
2     C1       4.9660  -36.2380   22.9390 C.ar    1  LIG   0.3947   0.1600 
3     H1       6.0082  -36.2811   22.6707 H       1  LIG   0.0281   0.1500 
4     C2       4.6240  -35.4500   24.0360 C.ar    1  LIG  -0.2334  -0.1500 
5     H2       5.3884  -34.9151   24.5740 H       1  LIG   0.1480   0.1500 
6     C3       3.3050  -35.3690   24.4150 C.ar    1  LIG  -0.0698  -0.1435 
7     C4       2.3460  -36.0770   23.6860 C.ar    1  LIG  -0.0398   0.1170 
8     N2       0.9890  -36.0280   24.1030 N.am    1  LIG  -0.4596  -0.5470 
9     H3       0.7643  -35.9928   25.0860 H       1  LIG   0.3311   0.3700 
10    C5      -0.1450  -36.0180   23.4080 C.2     1  LIG   0.7361   0.5438 
11    C6      -0.1190  -36.0770   21.8860 C.ar    1  LIG  -0.2550   0.0862 
12    C7      -1.1230  -35.3990   21.1890 C.ar    1  LIG  -0.0321  -0.1500 
13    H4      -1.7552  -34.6955   21.7041 H       1  LIG   0.1623   0.1500 
14    C8      -1.2960  -35.6300   19.8690 C.ar    1  LIG  -0.2723  -0.1500 
15    H5      -2.0662  -35.1073   19.3273 H       1  LIG   0.1522   0.1500 
16    C9      -0.4670  -36.5450   19.2400 C.ar    1  LIG   0.4373   0.1600 
17    H6      -0.5947  -36.7554   18.1915 H       1  LIG   0.0280   0.1500 
18    N3       0.5220  -37.2120   19.8740 N.ar    1  LIG  -0.6893  -0.6200 
19    C10      0.7040  -36.9790   21.1800 C.ar    1  LIG   0.6480   0.4100 
20    N4       1.7670  -37.6730   21.8260 N.pl3   1  LIG  -0.6924  -0.3690 
21    C11      2.7540  -36.8570   22.5840 C.ar    1  LIG   0.5805   0.4100 
22    C12      2.9040  -34.5090   25.6010 C.3     1  LIG  -0.0620   0.1435 
23    H7       2.2235  -33.7630   25.2820 H       1  LIG   0.0570   0.0000 
24    H8       2.4436  -35.1154   26.3371 H       1  LIG   0.0495   0.0000 
25    H9       3.7654  -34.0491   26.0108 H       1  LIG   0.0519   0.0000 
26    O1      -1.2400  -35.9060   23.9770 O.2     1  LIG  -0.6361  -0.5700 
27    C13      2.3440  -38.7570   21.0360 C.3     1  LIG   0.1354   0.0690 
28    H10      3.1238  -38.3754   20.4296 H       1  LIG   0.0981   0.1000 
29    C14      2.9380  -39.8900   21.8010 C.3     1  LIG  -0.1181  -0.2000 
30    H11      3.8890  -40.1268   21.3997 H       1  LIG   0.0732   0.1000 
31    H12      3.0430  -39.6129   22.8177 H       1  LIG   0.0789   0.1000 
32    C15      1.6390  -40.0610   21.0880 C.3     1  LIG  -0.1196  -0.2000 
33    H13      0.6832  -39.9283   21.5242 H       1  LIG   0.0807   0.1000 
34    H14      1.5292  -40.4423   20.1061 H       1  LIG   0.0733   0.1000 
@<TRIPOS>BOND
1     2     1     ar
2     3     2     1
3     4     2     ar
4     5     4     1
5     6     4     ar
6     7     6     ar
7     8     7     1
8     9     8     1
9     10    8     1
10    11    10    1
11    12    11    ar
12    13    12    1
13    14    12    ar
14    15    14    1
15    16    14    ar
16    17    16    1
17    18    16    ar
18    19    11    ar
19    19    18    ar
20    20    19    1
21    21    1     ar
22    21    7     ar
23    21    20    1
24    22    6     1
25    23    22    1
26    24    22    1
27    25    22    1
28    26    10    2
29    27    20    1
30    28    27    1
31    29    27    1
32    30    29    1
33    31    29    1
34    32    27    1
35    32    29    1
36    33    32    1
37    34    32    1
@<TRIPOS>SUBSTRUCTURE
1   LIG    1    
 
########## Name        : 1VRT.lig
########## Description : AM1BCC_CHARGES =  -0.0002 ORIGINAL_CHARGES =  -0.0000

@<TRIPOS>MOLECULE
1VRT.lig
34    37    1     0     0    
SMALL
USER_CHARGES
@<TRIPOS>ATOM
1     N1       4.0540  -36.9310   22.2210 N.ar    1  LIG  -0.6650  -0.6200 
2     C1       4.9660  -36.2380   22.9390 C.ar    1  LIG   0.3947   0.1600 
3     H1       6.0082  -36.2811   22.6707 H       1  LIG   0.0281   0.1500 
4     C2       4.6240  -35.4500   24.0360 C.ar    1  LIG  -0.2334  -0.1500 
5     H2       5.3884  -34.9151   24.5740 H       1  LIG   0.1480   0.1500 
6     C3       3.3050  -35.3690   24.4150 C.ar    1  LIG  -0.0698  -0.1435 
7     C4       2.3460  -36.0770   23.6860 C.ar    1  LIG  -0.0398   0.1170 
8     N2       0.9890  -36.0280   24.1030 N.am    1  LIG  -0.4596  -0.5470 
9     H3       0.7643  -35.9928   25.0860 H       1  LIG   0.3311   0.3700 
10    C5      -0.1450  -36.0180   23.4080 C.2     1  LIG   0.7361   0.5438 
11    C6      -0.1190  -36.0770   21.8860 C.ar    1  LIG  -0.2550   0.0862 
12    C7      -1.1230  -35.3990   21.1890 C.ar    1  LIG  -0.0321  -0.1500 
13    H4      -1.7552  -34.6955   21.7041 H       1  LIG   0.1623   0.1500 
14    C8      -1.2960  -35.6300   19.8690 C.ar    1  LIG  -0.2723  -0.1500 
15    H5      -2.0662  -35.1073   19.3273 H       1  LIG   0.1522   0.1500 
16    C9      -0.4670  -36.5450   19.2400 C.ar    1  LIG   0.4373   0.1600 
17    H6      -0.5947  -36.7554   18.1915 H       1  LIG   0.0280   0.1500 
18    N3       0.5220  -37.2120   19.8740 N.ar    1  LIG  -0.6893  -0.6200 
19    C10      0.7040  -36.9790   21.1800 C.ar    1  LIG   0.6480   0.4100 
20    N4       1.7670  -37.6730   21.8260 N.pl3   1  LIG  -0.6924  -0.3690 
21    C11      2.7540  -36.8570   22.5840 C.ar    1  LIG   0.5805   0.4100 
22    C12      2.9040  -34.5090   25.6010 C.3     1  LIG  -0.0620   0.1435 
23    H7       2.2235  -33.7630   25.2820 H       1  LIG   0.0570   0.0000 
24    H8       2.4436  -35.1154   26.3371 H       1  LIG   0.0495   0.0000 
25    H9       3.7654  -34.0491   26.0108 H       1  LIG   0.0519   0.0000 
26    O1      -1.2400  -35.9060   23.9770 O.2     1  LIG  -0.6361  -0.5700 
27    C13      2.3440  -38.7570   21.0360 C.3     1  LIG   0.1354   0.0690 
28    H10      3.1238  -38.3754   20.4296 H       1  LIG   0.0981   0.1000 
29    C14      2.9380  -39.8900   21.8010 C.3     1  LIG  -0.1181  -0.2000 
30    H11      3.8890  -40.1268   21.3997 H       1  LIG   0.0732   0.1000 
31    H12      3.0430  -39.6129   22.8177 H       1  LIG   0.0789   0.1000 
32    C15      1.6390  -40.0610   21.0880 C.3     1  LIG  -0.1196  -0.2000 
33    H13      0.6832  -39.9283   21.5242 H       1  LIG   0.0807   0.1000 
34    H14      1.5292  -40.4423   20.1061 H       1  LIG   0.0733   0.1000 
@<TRIPOS>BOND
1     2     1     ar
2     3     2     1
3     4     2     ar
4     5     4     1
5     6     4     ar
6     7     6     ar
7     8     7     1
8     9     8     1
9     10    8     1
10    11    10    1
11    12    11    ar
12    13    12    1
13    14    12    ar
14    15    14    1
15    16    14    ar
16    17    16    1
17    18    16    ar
18    19    11    ar
19    19    18    ar
20    20    19    1
21    21    1     ar
22    21    7     ar
23    21    20    1
24    22    6     1
25    23    22    1
26    24    22    1
27    25    22    1
28    26    10    2
29    27    20    1
30    28    27    1
31    29    27    1
32    30    29    1
33    31    29    1
34    32    27    1
35    32    29    1
36    33    32    1
37    34    32    1
@<TRIPOS>SUBSTRUCTURE
1   LIG    1    
 
########## Name        : 1VRT.lig
########## Description : AM1BCC_CHARGES =  -0.0002 ORIGINAL_CHARGES =  -0.0000

@<TRIPOS>MOLECULE
1VRT.lig
34    37    1     0     0    
SMALL
USER_CHARGES
@<TRIPOS>ATOM
1     N1       4.0540  -36.9310   22.2210 N.ar    1  LIG  -0.6650  -0.6200 
2     C1       4.9660  -36.2380   22.9390 C.ar    1  LIG   0.3947   0.1600 
3     H1       6.0082  -36.2811   22.6707 H       1  LIG   0.0281   0.1500 
4     C2       4.6240  -35.4500   24.0360 C.ar    1  LIG  -0.2334  -0.1500 
5     H2       5.3884  -34.9151   24.5740 H       1  LIG   0.1480   0.1500 
6     C3       3.3050  -35.3690   24.4150 C.ar    1  LIG  -0.0698  -0.1435 
7     C4       2.3460  -36.0770   23.6860 C.ar    1  LIG  -0.0398   0.1170 
8     N2       0.9890  -36.0280   24.1030 N.am    1  LIG  -0.4596  -0.5470 
9     H3       0.7643  -35.9928   25.0860 H       1  LIG   0.3311   0.3700 
10    C5      -0.1450  -36.0180   23.4080 C.2     1  LIG   0.7361   0.5438 
11    C6      -0.1190  -36.0770   21.8860 C.ar    1  LIG  -0.2550   0.0862 
12    C7      -1.1230  -35.3990   21.1890 C.ar    1  LIG  -0.0321  -0.1500 
13    H4      -1.7552  -34.6955   21.7041 H       1  LIG   0.1623   0.1500 
14    C8      -1.2960  -35.6300   19.8690 C.ar    1  LIG  -0.2723  -0.1500 
15    H5      -2.0662  -35.1073   19.3273 H       1  LIG   0.1522   0.1500 
16    C9      -0.4670  -36.5450   19.2400 C.ar    1  LIG   0.4373   0.1600 
17    H6      -0.5947  -36.7554   18.1915 H       1  LIG   0.0280   0.1500 
18    N3       0.5220  -37.2120   19.8740 N.ar    1  LIG  -0.6893  -0.6200 
19    C10      0.7040  -36.9790   21.1800 C.ar    1  LIG   0.6480   0.4100 
20    N4       1.7670  -37.6730   21.8260 N.pl3   1  LIG  -0.6924  -0.3690 
21    C11      2.7540  -36.8570   22.5840 C.ar    1  LIG   0.5805   0.4100 
22    C12      2.9040  -34.5090   25.6010 C.3     1  LIG  -0.0620   0.1435 
23    H7       2.2235  -33.7630   25.2820 H       1  LIG   0.0570   0.0000 
24    H8       2.4436  -35.1154   26.3371 H       1  LIG   0.0495   0.0000 
25    H9       3.7654  -34.0491   26.0108 H       1  LIG   0.0519   0.0000 
26    O1      -1.2400  -35.9060   23.9770 O.2     1  LIG  -0.6361  -0.5700 
27    C13      2.3440  -38.7570   21.0360 C.3     1  LIG   0.1354   0.0690 
28    H10      3.1238  -38.3754   20.4296 H       1  LIG   0.0981   0.1000 
29    C14      2.9380  -39.8900   21.8010 C.3     1  LIG  -0.1181  -0.2000 
30    H11      3.8890  -40.1268   21.3997 H       1  LIG   0.0732   0.1000 
31    H12      3.0430  -39.6129   22.8177 H       1  LIG   0.0789   0.1000 
32    C15      1.6390  -40.0610   21.0880 C.3     1  LIG  -0.1196  -0.2000 
33    H13      0.6832  -39.9283   21.5242 H       1  LIG   0.0807   0.1000 
34    H14      1.5292  -40.4423   20.1061 H       1  LIG   0.0733   0.1000 
@<TRIPOS>BOND
1     2     1     ar
2     3     2     1
3     4     2     ar
4     5     4     1
5     6     4     ar
6     7     6     ar
7     8     7     1
8     9     8     1
9     10    8     1
10    11    10    1
11    12    11    ar
12    13    12    1
13    14    12    ar
14    15    14    1
15    16    14    ar
16    17    16    1
17    18    16    ar
18    19    11    ar
19    19    18    ar
20    20    19    1
21    21    1     ar
22    21    7     ar
23    21    20    1
24    22    6     1
25    23    22    1
26    24    22    1
27    25    22    1
28    26    10    2
29    27    20    1
30    28    27    1
31    29    27    1
32    30    29    1
33    31    29    1
34    32    27    1
35    32    29    1
36    33    32    1
37    34    32    1
@<TRIPOS>SUBSTRUCTURE
1   LIG    1    
 
########## Name        : 1VRT.lig
########## Description : AM1BCC_CHARGES =  -0.0002 ORIGINAL_CHARGES =  -0.0000

@<TRIPOS>MOLECULE
1VRT.lig
34    37    1     0     0    
SMALL
USER_CHARGES
@<TRIPOS>ATOM
1     N1       4.0540  -36.9310   22.2210 N.ar    1  LIG  -0.6650  -0.6200 
2     C1       4.9660  -36.2380   22.9390 C.ar    1  LIG   0.3947   0.1600 
3     H1       6.0082  -36.2811   22.6707 H       1  LIG   0.0281   0.1500 
4     C2       4.6240  -35.4500   24.0360 C.ar    1  LIG  -0.2334  -0.1500 
5     H2       5.3884  -34.9151   24.5740 H       1  LIG   0.1480   0.1500 
6     C3       3.3050  -35.3690   24.4150 C.ar    1  LIG  -0.0698  -0.1435 
7     C4       2.3460  -36.0770   23.6860 C.ar    1  LIG  -0.0398   0.1170 
8     N2       0.9890  -36.0280   24.1030 N.am    1  LIG  -0.4596  -0.5470 
9     H3       0.7643  -35.9928   25.0860 H       1  LIG   0.3311   0.3700 
10    C5      -0.1450  -36.0180   23.4080 C.2     1  LIG   0.7361   0.5438 
11    C6      -0.1190  -36.0770   21.8860 C.ar    1  LIG  -0.2550   0.0862 
12    C7      -1.1230  -35.3990   21.1890 C.ar    1  LIG  -0.0321  -0.1500 
13    H4      -1.7552  -34.6955   21.7041 H       1  LIG   0.1623   0.1500 
14    C8      -1.2960  -35.6300   19.8690 C.ar    1  LIG  -0.2723  -0.1500 
15    H5      -2.0662  -35.1073   19.3273 H       1  LIG   0.1522   0.1500 
16    C9      -0.4670  -36.5450   19.2400 C.ar    1  LIG   0.4373   0.1600 
17    H6      -0.5947  -36.7554   18.1915 H       1  LIG   0.0280   0.1500 
18    N3       0.5220  -37.2120   19.8740 N.ar    1  LIG  -0.6893  -0.6200 
19    C10      0.7040  -36.9790   21.1800 C.ar    1  LIG   0.6480   0.4100 
20    N4       1.7670  -37.6730   21.8260 N.pl3   1  LIG  -0.6924  -0.3690 
21    C11      2.7540  -36.8570   22.5840 C.ar    1  LIG   0.5805   0.4100 
22    C12      2.9040  -34.5090   25.6010 C.3     1  LIG  -0.0620   0.1435 
23    H7       2.2235  -33.7630   25.2820 H       1  LIG   0.0570   0.0000 
24    H8       2.4436  -35.1154   26.3371 H       1  LIG   0.0495   0.0000 
25    H9       3.7654  -34.0491   26.0108 H       1  LIG   0.0519   0.0000 
26    O1      -1.2400  -35.9060   23.9770 O.2     1  LIG  -0.6361  -0.5700 
27    C13      2.3440  -38.7570   21.0360 C.3     1  LIG   0.1354   0.0690 
28    H10      3.1238  -38.3754   20.4296 H       1  LIG   0.0981   0.1000 
29    C14      2.9380  -39.8900   21.8010 C.3     1  LIG  -0.1181  -0.2000 
30    H11      3.8890  -40.1268   21.3997 H       1  LIG   0.0732   0.1000 
31    H12      3.0430  -39.6129   22.8177 H       1  LIG   0.0789   0.1000 
32    C15      1.6390  -40.0610   21.0880 C.3     1  LIG  -0.1196  -0.2000 
33    H13      0.6832  -39.9283   21.5242 H       1  LIG   0.0807   0.1000 
34    H14      1.5292  -40.4423   20.1061 H       1  LIG   0.0733   0.1000 
@<TRIPOS>BOND
1     2     1     ar
2     3     2     1
3     4     2     ar
4     5     4     1
5     6     4     ar
6     7     6     ar
7     8     7     1
8     9     8     1
9     10    8     1
10    11    10    1
11    12    11    ar
12    13    12    1
13    14    12    ar
14    15    14    1
15    16    14    ar
16    17    16    1
17    18    16    ar
18    19    11    ar
19    19    18    ar
20    20    19    1
21    21    1     ar
22    21    7     ar
23    21    20    1
24    22    6     1
25    23    22    1
26    24    22    1
27    25    22    1
28    26    10    2
29    27    20    1
30    28    27    1
31    29    27    1
32    30    29    1
33    31    29    1
34    32    27    1
35    32    29    1
36    33    32    1
37    34    32    1
@<TRIPOS>SUBSTRUCTURE
1   LIG    1    
 
########## Name        : 1VRT.lig
########## Description : AM1BCC_CHARGES =  -0.0002 ORIGINAL_CHARGES =  -0.0000

@<TRIPOS>MOLECULE
1VRT.lig
34    37    1     0     0    
SMALL
USER_CHARGES
@<TRIPOS>ATOM
1     N1       4.0540  -36.9310   22.2210 N.ar    1  LIG  -0.6650  -0.6200 
2     C1       4.9660  -36.2380   22.9390 C.ar    1  LIG   0.3947   0.1600 
3     H1       6.0082  -36.2811   22.6707 H       1  LIG   0.0281   0.1500 
4     C2       4.6240  -35.4500   24.0360 C.ar    1  LIG  -0.2334  -0.1500 
5     H2       5.3884  -34.9151   24.5740 H       1  LIG   0.1480   0.1500 
6     C3       3.3050  -35.3690   24.4150 C.ar    1  LIG  -0.0698  -0.1435 
7     C4       2.3460  -36.0770   23.6860 C.ar    1  LIG  -0.0398   0.1170 
8     N2       0.9890  -36.0280   24.1030 N.am    1  LIG  -0.4596  -0.5470 
9     H3       0.7643  -35.9928   25.0860 H       1  LIG   0.3311   0.3700 
10    C5      -0.1450  -36.0180   23.4080 C.2     1  LIG   0.7361   0.5438 
11    C6      -0.1190  -36.0770   21.8860 C.ar    1  LIG  -0.2550   0.0862 
12    C7      -1.1230  -35.3990   21.1890 C.ar    1  LIG  -0.0321  -0.1500 
13    H4      -1.7552  -34.6955   21.7041 H       1  LIG   0.1623   0.1500 
14    C8      -1.2960  -35.6300   19.8690 C.ar    1  LIG  -0.2723  -0.1500 
15    H5      -2.0662  -35.1073   19.3273 H       1  LIG   0.1522   0.1500 
16    C9      -0.4670  -36.5450   19.2400 C.ar    1  LIG   0.4373   0.1600 
17    H6      -0.5947  -36.7554   18.1915 H       1  LIG   0.0280   0.1500 
18    N3       0.5220  -37.2120   19.8740 N.ar    1  LIG  -0.6893  -0.6200 
19    C10      0.7040  -36.9790   21.1800 C.ar    1  LIG   0.6480   0.4100 
20    N4       1.7670  -37.6730   21.8260 N.pl3   1  LIG  -0.6924  -0.3690 
21    C11      2.7540  -36.8570   22.5840 C.ar    1  LIG   0.5805   0.4100 
22    C12      2.9040  -34.5090   25.6010 C.3     1  LIG  -0.0620   0.1435 
23    H7       2.2235  -33.7630   25.2820 H       1  LIG   0.0570   0.0000 
24    H8       2.4436  -35.1154   26.3371 H       1  LIG   0.0495   0.0000 
25    H9       3.7654  -34.0491   26.0108 H       1  LIG   0.0519   0.0000 
26    O1      -1.2400  -35.9060   23.9770 O.2     1  LIG  -0.6361  -0.5700 
27    C13      2.3440  -38.7570   21.0360 C.3     1  LIG   0.1354   0.0690 
28    H10      3.1238  -38.3754   20.4296 H       1  LIG   0.0981   0.1000 
29    C14      2.9380  -39.8900   21.8010 C.3     1  LIG  -0.1181  -0.2000 
30    H11      3.8890  -40.1268   21.3997 H       1  LIG   0.0732   0.1000 
31    H12      3.0430  -39.6129   22.8177 H       1  LIG   0.0789   0.1000 
32    C15      1.6390  -40.0610   21.0880 C.3     1  LIG  -0.1196  -0.2000 
33    H13      0.6832  -39.9283   21.5242 H       1  LIG   0.0807   0.1000 
34    H14      1.5292  -40.4423   20.1061 H       1  LIG   0.0733   0.1000 
@<TRIPOS>BOND
1     2     1     ar
2     3     2     1
3     4     2     ar
4     5     4     1
5     6     4     ar
6     7     6     ar
7     8     7     1
8     9     8     1
9     10    8     1
10    11    10    1
11    12    11    ar
12    13    12    1
13    14    12    ar
14    15    14    1
15    16    14    ar
16    17    16    1
17    18    16    ar
18    19    11    ar
19    19    18    ar
20    20    19    1
21    21    1     ar
22    21    7     ar
23    21    20    1
24    22    6     1
25    23    22    1
26    24    22    1
27    25    22    1
28    26    10    2
29    27    20    1
30    28    27    1
31    29    27    1
32    30    29    1
33    31    29    1
34    32    27    1
35    32    29    1
36    33    32    1
37    34    32    1
@<TRIPOS>SUBSTRUCTURE
1   LIG    1    
 
########## Name        : 1VRT.lig
########## Description : AM1BCC_CHARGES =  -0.0002 ORIGINAL_CHARGES =  -0.0000

@<TRIPOS>MOLECULE
1VRT.lig
34    37    1     0     0    
SMALL
USER_CHARGES
@<TRIPOS>ATOM
1     N1       4.0540  -36.9310   22.2210 N.ar    1  LIG  -0.6650  -0.6200 
2     C1       4.9660  -36.2380   22.9390 C.ar    1  LIG   0.3947   0.1600 
3     H1       6.0082  -36.2811   22.6707 H       1  LIG   0.0281   0.1500 
4     C2       4.6240  -35.4500   24.0360 C.ar    1  LIG  -0.2334  -0.1500 
5     H2       5.3884  -34.9151   24.5740 H       1  LIG   0.1480   0.1500 
6     C3       3.3050  -35.3690   24.4150 C.ar    1  LIG  -0.0698  -0.1435 
7     C4       2.3460  -36.0770   23.6860 C.ar    1  LIG  -0.0398   0.1170 
8     N2       0.9890  -36.0280   24.1030 N.am    1  LIG  -0.4596  -0.5470 
9     H3       0.7643  -35.9928   25.0860 H       1  LIG   0.3311   0.3700 
10    C5      -0.1450  -36.0180   23.4080 C.2     1  LIG   0.7361   0.5438 
11    C6      -0.1190  -36.0770   21.8860 C.ar    1  LIG  -0.2550   0.0862 
12    C7      -1.1230  -35.3990   21.1890 C.ar    1  LIG  -0.0321  -0.1500 
13    H4      -1.7552  -34.6955   21.7041 H       1  LIG   0.1623   0.1500 
14    C8      -1.2960  -35.6300   19.8690 C.ar    1  LIG  -0.2723  -0.1500 
15    H5      -2.0662  -35.1073   19.3273 H       1  LIG   0.1522   0.1500 
16    C9      -0.4670  -36.5450   19.2400 C.ar    1  LIG   0.4373   0.1600 
17    H6      -0.5947  -36.7554   18.1915 H       1  LIG   0.0280   0.1500 
18    N3       0.5220  -37.2120   19.8740 N.ar    1  LIG  -0.6893  -0.6200 
19    C10      0.7040  -36.9790   21.1800 C.ar    1  LIG   0.6480   0.4100 
20    N4       1.7670  -37.6730   21.8260 N.pl3   1  LIG  -0.6924  -0.3690 
21    C11      2.7540  -36.8570   22.5840 C.ar    1  LIG   0.5805   0.4100 
22    C12      2.9040  -34.5090   25.6010 C.3     1  LIG  -0.0620   0.1435 
23    H7       2.2235  -33.7630   25.2820 H       1  LIG   0.0570   0.0000 
24    H8       2.4436  -35.1154   26.3371 H       1  LIG   0.0495   0.0000 
25    H9       3.7654  -34.0491   26.0108 H       1  LIG   0.0519   0.0000 
26    O1      -1.2400  -35.9060   23.9770 O.2     1  LIG  -0.6361  -0.5700 
27    C13      2.3440  -38.7570   21.0360 C.3     1  LIG   0.1354   0.0690 
28    H10      3.1238  -38.3754   20.4296 H       1  LIG   0.0981   0.1000 
29    C14      2.9380  -39.8900   21.8010 C.3     1  LIG  -0.1181  -0.2000 
30    H11      3.8890  -40.1268   21.3997 H       1  LIG   0.0732   0.1000 
31    H12      3.0430  -39.6129   22.8177 H       1  LIG   0.0789   0.1000 
32    C15      1.6390  -40.0610   21.0880 C.3     1  LIG  -0.1196  -0.2000 
33    H13      0.6832  -39.9283   21.5242 H       1  LIG   0.0807   0.1000 
34    H14      1.5292  -40.4423   20.1061 H       1  LIG   0.0733   0.1000 
@<TRIPOS>BOND
1     2     1     ar
2     3     2     1
3     4     2     ar
4     5     4     1
5     6     4     ar
6     7     6     ar
7     8     7     1
8     9     8     1
9     10    8     1
10    11    10    1
11    12    11    ar
12    13    12    1
13    14    12    ar
14    15    14    1
15    16    14    ar
16    17    16    1
17    18    16    ar
18    19    11    ar
19    19    18    ar
20    20    19    1
21    21    1     ar
22    21    7     ar
23    21    20    1
24    22    6     1
25    23    22    1
26    24    22    1
27    25    22    1
28    26    10    2
29    27    20    1
30    28    27    1
31    29    27    1
32    30    29    1
33    31    29    1
34    32    27    1
35    32    29    1
36    33    32    1
37    34    32    1
@<TRIPOS>SUBSTRUCTURE
1   LIG    1    
 
########## Name        : 1VRT.lig
########## Description : AM1BCC_CHARGES =  -0.0002 ORIGINAL_CHARGES =  -0.0000

@<TRIPOS>MOLECULE
1VRT.lig
34    37    1     0     0    
SMALL
USER_CHARGES
@<TRIPOS>ATOM
1     N1       4.0540  -36.9310   22.2210 N.ar    1  LIG  -0.6650  -0.6200 
2     C1       4.9660  -36.2380   22.9390 C.ar    1  LIG   0.3947   0.1600 
3     H1       6.0082  -36.2811   22.6707 H       1  LIG   0.0281   0.1500 
4     C2       4.6240  -35.4500   24.0360 C.ar    1  LIG  -0.2334  -0.1500 
5     H2       5.3884  -34.9151   24.5740 H       1  LIG   0.1480   0.1500 
6     C3       3.3050  -35.3690   24.4150 C.ar    1  LIG  -0.0698  -0.1435 
7     C4       2.3460  -36.0770   23.6860 C.ar    1  LIG  -0.0398   0.1170 
8     N2       0.9890  -36.0280   24.1030 N.am    1  LIG  -0.4596  -0.5470 
9     H3       0.7643  -35.9928   25.0860 H       1  LIG   0.3311   0.3700 
10    C5      -0.1450  -36.0180   23.4080 C.2     1  LIG   0.7361   0.5438 
11    C6      -0.1190  -36.0770   21.8860 C.ar    1  LIG  -0.2550   0.0862 
12    C7      -1.1230  -35.3990   21.1890 C.ar    1  LIG  -0.0321  -0.1500 
13    H4      -1.7552  -34.6955   21.7041 H       1  LIG   0.1623   0.1500 
14    C8      -1.2960  -35.6300   19.8690 C.ar    1  LIG  -0.2723  -0.1500 
15    H5      -2.0662  -35.1073   19.3273 H       1  LIG   0.1522   0.1500 
16    C9      -0.4670  -36.5450   19.2400 C.ar    1  LIG   0.4373   0.1600 
17    H6      -0.5947  -36.7554   18.1915 H       1  LIG   0.0280   0.1500 
18    N3       0.5220  -37.2120   19.8740 N.ar    1  LIG  -0.6893  -0.6200 
19    C10      0.7040  -36.9790   21.1800 C.ar    1  LIG   0.6480   0.4100 
20    N4       1.7670  -37.6730   21.8260 N.pl3   1  LIG  -0.6924  -0.3690 
21    C11      2.7540  -36.8570   22.5840 C.ar    1  LIG   0.5805   0.4100 
22    C12      2.9040  -34.5090   25.6010 C.3     1  LIG  -0.0620   0.1435 
23    H7       2.2235  -33.7630   25.2820 H       1  LIG   0.0570   0.0000 
24    H8       2.4436  -35.1154   26.3371 H       1  LIG   0.0495   0.0000 
25    H9       3.7654  -34.0491   26.0108 H       1  LIG   0.0519   0.0000 
26    O1      -1.2400  -35.9060   23.9770 O.2     1  LIG  -0.6361  -0.5700 
27    C13      2.3440  -38.7570   21.0360 C.3     1  LIG   0.1354   0.0690 
28    H10      3.1238  -38.3754   20.4296 H       1  LIG   0.0981   0.1000 
29    C14      2.9380  -39.8900   21.8010 C.3     1  LIG  -0.1181  -0.2000 
30    H11      3.8890  -40.1268   21.3997 H       1  LIG   0.0732   0.1000 
31    H12      3.0430  -39.6129   22.8177 H       1  LIG   0.0789   0.1000 
32    C15      1.6390  -40.0610   21.0880 C.3     1  LIG  -0.1196  -0.2000 
33    H13      0.6832  -39.9283   21.5242 H       1  LIG   0.0807   0.1000 
34    H14      1.5292  -40.4423   20.1061 H       1  LIG   0.0733   0.1000 
@<TRIPOS>BOND
1     2     1     ar
2     3     2     1
3     4     2     ar
4     5     4     1
5     6     4     ar
6     7     6     ar
7     8     7     1
8     9     8     1
9     10    8     1
10    11    10    1
11    12    11    ar
12    13    12    1
13    14    12    ar
14    15    14    1
15    16    14    ar
16    17    16    1
17    18    16    ar
18    19    11    ar
19    19    18    ar
20    20    19    1
21    21    1     ar
22    21    7     ar
23    21    20    1
24    22    6     1
25    23    22    1
26    24    22    1
27    25    22    1
28    26    10    2
29    27    20    1
30    28    27    1
31    29    27    1
32    30    29    1
33    31    29    1
34    32    27    1
35    32    29    1
36    33    32    1
37    34    32    1
@<TRIPOS>SUBSTRUCTURE
1   LIG    1    
 
########## Name        : 1VRT.lig
########## Description : AM1BCC_CHARGES =  -0.0002 ORIGINAL_CHARGES =  -0.0000

@<TRIPOS>MOLECULE
1VRT.lig
34    37    1     0     0    
SMALL
USER_CHARGES
@<TRIPOS>ATOM
1     N1       4.0540  -36.9310   22.2210 N.ar    1  LIG  -0.6650  -0.6200 
2     C1       4.9660  -36.2380   22.9390 C.ar    1  LIG   0.3947   0.1600 
3     H1       6.0082  -36.2811   22.6707 H       1  LIG   0.0281   0.1500 
4     C2       4.6240  -35.4500   24.0360 C.ar    1  LIG  -0.2334  -0.1500 
5     H2       5.3884  -34.9151   24.5740 H       1  LIG   0.1480   0.1500 
6     C3       3.3050  -35.3690   24.4150 C.ar    1  LIG  -0.0698  -0.1435 
7     C4       2.3460  -36.0770   23.6860 C.ar    1  LIG  -0.0398   0.1170 
8     N2       0.9890  -36.0280   24.1030 N.am    1  LIG  -0.4596  -0.5470 
9     H3       0.7643  -35.9928   25.0860 H       1  LIG   0.3311   0.3700 
10    C5      -0.1450  -36.0180   23.4080 C.2     1  LIG   0.7361   0.5438 
11    C6      -0.1190  -36.0770   21.8860 C.ar    1  LIG  -0.2550   0.0862 
12    C7      -1.1230  -35.3990   21.1890 C.ar    1  LIG  -0.0321  -0.1500 
13    H4      -1.7552  -34.6955   21.7041 H       1  LIG   0.1623   0.1500 
14    C8      -1.2960  -35.6300   19.8690 C.ar    1  LIG  -0.2723  -0.1500 
15    H5      -2.0662  -35.1073   19.3273 H       1  LIG   0.1522   0.1500 
16    C9      -0.4670  -36.5450   19.2400 C.ar    1  LIG   0.4373   0.1600 
17    H6      -0.5947  -36.7554   18.1915 H       1  LIG   0.0280   0.1500 
18    N3       0.5220  -37.2120   19.8740 N.ar    1  LIG  -0.6893  -0.6200 
19    C10      0.7040  -36.9790   21.1800 C.ar    1  LIG   0.6480   0.4100 
20    N4       1.7670  -37.6730   21.8260 N.pl3   1  LIG  -0.6924  -0.3690 
21    C11      2.7540  -36.8570   22.5840 C.ar    1  LIG   0.5805   0.4100 
22    C12      2.9040  -34.5090   25.6010 C.3     1  LIG  -0.0620   0.1435 
23    H7       2.2235  -33.7630   25.2820 H       1  LIG   0.0570   0.0000 
24    H8       2.4436  -35.1154   26.3371 H       1  LIG   0.0495   0.0000 
25    H9       3.7654  -34.0491   26.0108 H       1  LIG   0.0519   0.0000 
26    O1      -1.2400  -35.9060   23.9770 O.2     1  LIG  -0.6361  -0.5700 
27    C13      2.3440  -38.7570   21.0360 C.3     1  LIG   0.1354   0.0690 
28    H10      3.1238  -38.3754   20.4296 H       1  LIG   0.0981   0.1000 
29    C14      2.9380  -39.8900   21.8010 C.3     1  LIG  -0.1181  -0.2000 
30    H11      3.8890  -40.1268   21.3997 H       1  LIG   0.0732   0.1000 
31    H12      3.0430  -39.6129   22.8177 H       1  LIG   0.0789   0.1000 
32    C15      1.6390  -40.0610   21.0880 C.3     1  LIG  -0.1196  -0.2000 
33    H13      0.6832  -39.9283   21.5242 H       1  LIG   0.0807   0.1000 
34    H14      1.5292  -40.4423   20.1061 H       1  LIG   0.0733   0.1000 
@<TRIPOS>BOND
1     2     1     ar
2     3     2     1
3     4     2     ar
4     5     4     1
5     6     4     ar
6     7     6     ar
7     8     7     1
8     9     8     1
9     10    8     1
10    11    10    1
11    12    11    ar
12    13    12    1
13    14    12    ar
14    15    14    1
15    16    14    ar
16    17    16    1
17    18    16    ar
18    19    11    ar
19    19    18    ar
20    20    19    1
21    21    1     ar
22    21    7     ar
23    21    20    1
24    22    6     1
25    23    22    1
26    24    22    1
27    25    22    1
28    26    10    2
29    27    20    1
30    28    27    1
31    29    27    1
32    30    29    1
33    31    29    1
34    32    27    1
35    32    29    1
36    33    32    1
37    34    32    1
@<TRIPOS>SUBSTRUCTURE
1   LIG    1    
 
########## Name        : 1VRT.lig
########## Description : AM1BCC_CHARGES =  -0.0002 ORIGINAL_CHARGES =  -0.0000

@<TRIPOS>MOLECULE
1VRT.lig
34    37    1     0     0    
SMALL
USER_CHARGES
@<TRIPOS>ATOM
1     N1       4.0540  -36.9310   22.2210 N.ar    1  LIG  -0.6650  -0.6200 
2     C1       4.9660  -36.2380   22.9390 C.ar    1  LIG   0.3947   0.1600 
3     H1       6.0082  -36.2811   22.6707 H       1  LIG   0.0281   0.1500 
4     C2       4.6240  -35.4500   24.0360 C.ar    1  LIG  -0.2334  -0.1500 
5     H2       5.3884  -34.9151   24.5740 H       1  LIG   0.1480   0.1500 
6     C3       3.3050  -35.3690   24.4150 C.ar    1  LIG  -0.0698  -0.1435 
7     C4       2.3460  -36.0770   23.6860 C.ar    1  LIG  -0.0398   0.1170 
8     N2       0.9890  -36.0280   24.1030 N.am    1  LIG  -0.4596  -0.5470 
9     H3       0.7643  -35.9928   25.0860 H       1  LIG   0.3311   0.3700 
10    C5      -0.1450  -36.0180   23.4080 C.2     1  LIG   0.7361   0.5438 
11    C6      -0.1190  -36.0770   21.8860 C.ar    1  LIG  -0.2550   0.0862 
12    C7      -1.1230  -35.3990   21.1890 C.ar    1  LIG  -0.0321  -0.1500 
13    H4      -1.7552  -34.6955   21.7041 H       1  LIG   0.1623   0.1500 
14    C8      -1.2960  -35.6300   19.8690 C.ar    1  LIG  -0.2723  -0.1500 
15    H5      -2.0662  -35.1073   19.3273 H       1  LIG   0.1522   0.1500 
16    C9      -0.4670  -36.5450   19.2400 C.ar    1  LIG   0.4373   0.1600 
17    H6      -0.5947  -36.7554   18.1915 H       1  LIG   0.0280   0.1500 
18    N3       0.5220  -37.2120   19.8740 N.ar    1  LIG  -0.6893  -0.6200 
19    C10      0.7040  -36.9790   21.1800 C.ar    1  LIG   0.6480   0.4100 
20    N4       1.7670  -37.6730   21.8260 N.pl3   1  LIG  -0.6924  -0.3690 
21    C11      2.7540  -36.8570   22.5840 C.ar    1  LIG   0.5805   0.4100 
22    C12      2.9040  -34.5090   25.6010 C.3     1  LIG  -0.0620   0.1435 
23    H7       2.2235  -33.7630   25.2820 H       1  LIG   0.0570   0.0000 
24    H8       2.4436  -35.1154   26.3371 H       1  LIG   0.0495   0.0000 
25    H9       3.7654  -34.0491   26.0108 H       1  LIG   0.0519   0.0000 
26    O1      -1.2400  -35.9060   23.9770 O.2     1  LIG  -0.6361  -0.5700 
27    C13      2.3440  -38.7570   21.0360 C.3     1  LIG   0.1354   0.0690 
28    H10      3.1238  -38.3754   20.4296 H       1  LIG   0.0981   0.1000 
29    C14      2.9380  -39.8900   21.8010 C.3     1  LIG  -0.1181  -0.2000 
30    H11      3.8890  -40.1268   21.3997 H       1  LIG   0.0732   0.1000 
31    H12      3.0430  -39.6129   22.8177 H       1  LIG   0.0789   0.1000 
32    C15      1.6390  -40.0610   21.0880 C.3     1  LIG  -0.1196  -0.2000 
33    H13      0.6832  -39.9283   21.5242 H       1  LIG   0.0807   0.1000 
34    H14      1.5292  -40.4423   20.1061 H       1  LIG   0.0733   0.1000 
@<TRIPOS>BOND
1     2     1     ar
2     3     2     1
3     4     2     ar
4     5     4     1
5     6     4     ar
6     7     6     ar
7     8     7     1
8     9     8     1
9     10    8     1
10    11    10    1
11    12    11    ar
12    13    12    1
13    14    12    ar
14    15    14    1
15    16    14    ar
16    17    16    1
17    18    16    ar
18    19    11    ar
19    19    18    ar
20    20    19    1
21    21    1     ar
22    21    7     ar
23    21    20    1
24    22    6     1
25    23    22    1
26    24    22    1
27    25    22    1
28    26    10    2
29    27    20    1
30    28    27    1
31    29    27    1
32    30    29    1
33    31    29    1
34    32    27    1
35    32    29    1
36    33    32    1
37    34    32    1
@<TRIPOS>SUBSTRUCTURE
1   LIG    1    
 
########## Name        : 1VRT.lig
########## Description : AM1BCC_CHARGES =  -0.0002 ORIGINAL_CHARGES =  -0.0000

@<TRIPOS>MOLECULE
1VRT.lig
34    37    1     0     0    
SMALL
USER_CHARGES
@<TRIPOS>ATOM
1     N1       4.0540  -36.9310   22.2210 N.ar    1  LIG  -0.6650  -0.6200 
2     C1       4.9660  -36.2380   22.9390 C.ar    1  LIG   0.3947   0.1600 
3     H1       6.0082  -36.2811   22.6707 H       1  LIG   0.0281   0.1500 
4     C2       4.6240  -35.4500   24.0360 C.ar    1  LIG  -0.2334  -0.1500 
5     H2       5.3884  -34.9151   24.5740 H       1  LIG   0.1480   0.1500 
6     C3       3.3050  -35.3690   24.4150 C.ar    1  LIG  -0.0698  -0.1435 
7     C4       2.3460  -36.0770   23.6860 C.ar    1  LIG  -0.0398   0.1170 
8     N2       0.9890  -36.0280   24.1030 N.am    1  LIG  -0.4596  -0.5470 
9     H3       0.7643  -35.9928   25.0860 H       1  LIG   0.3311   0.3700 
10    C5      -0.1450  -36.0180   23.4080 C.2     1  LIG   0.7361   0.5438 
11    C6      -0.1190  -36.0770   21.8860 C.ar    1  LIG  -0.2550   0.0862 
12    C7      -1.1230  -35.3990   21.1890 C.ar    1  LIG  -0.0321  -0.1500 
13    H4      -1.7552  -34.6955   21.7041 H       1  LIG   0.1623   0.1500 
14    C8      -1.2960  -35.6300   19.8690 C.ar    1  LIG  -0.2723  -0.1500 
15    H5      -2.0662  -35.1073   19.3273 H       1  LIG   0.1522   0.1500 
16    C9      -0.4670  -36.5450   19.2400 C.ar    1  LIG   0.4373   0.1600 
17    H6      -0.5947  -36.7554   18.1915 H       1  LIG   0.0280   0.1500 
18    N3       0.5220  -37.2120   19.8740 N.ar    1  LIG  -0.6893  -0.6200 
19    C10      0.7040  -36.9790   21.1800 C.ar    1  LIG   0.6480   0.4100 
20    N4       1.7670  -37.6730   21.8260 N.pl3   1  LIG  -0.6924  -0.3690 
21    C11      2.7540  -36.8570   22.5840 C.ar    1  LIG   0.5805   0.4100 
22    C12      2.9040  -34.5090   25.6010 C.3     1  LIG  -0.0620   0.1435 
23    H7       2.2235  -33.7630   25.2820 H       1  LIG   0.0570   0.0000 
24    H8       2.4436  -35.1154   26.3371 H       1  LIG   0.0495   0.0000 
25    H9       3.7654  -34.0491   26.0108 H       1  LIG   0.0519   0.0000 
26    O1      -1.2400  -35.9060   23.9770 O.2     1  LIG  -0.6361  -0.5700 
27    C13      2.3440  -38.7570   21.0360 C.3     1  LIG   0.1354   0.0690 
28    H10      3.1238  -38.3754   20.4296 H       1  LIG   0.0981   0.1000 
29    C14      2.9380  -39.8900   21.8010 C.3     1  LIG  -0.1181  -0.2000 
30    H11      3.8890  -40.1268   21.3997 H       1  LIG   0.0732   0.1000 
31    H12      3.0430  -39.6129   22.8177 H       1  LIG   0.0789   0.1000 
32    C15      1.6390  -40.0610   21.0880 C.3     1  LIG  -0.1196  -0.2000 
33    H13      0.6832  -39.9283   21.5242 H       1  LIG   0.0807   0.1000 
34    H14      1.5292  -40.4423   20.1061 H       1  LIG   0.0733   0.1000 
@<TRIPOS>BOND
1     2     1     ar
2     3     2     1
3     4     2     ar
4     5     4     1
5     6     4     ar
6     7     6     ar
7     8     7     1
8     9     8     1
9     10    8     1
10    11    10    1
11    12    11    ar
12    13    12    1
13    14    12    ar
14    15    14    1
15    16    14    ar
16    17    16    1
17    18    16    ar
18    19    11    ar
19    19    18    ar
20    20    19    1
21    21    1     ar
22    21    7     ar
23    21    20    1
24    22    6     1
25    23    22    1
26    24    22    1
27    25    22    1
28    26    10    2
29    27    20    1
30    28    27    1
31    29    27    1
32    30    29    1
33    31    29    1
34    32    27    1
35    32    29    1
36    33    32    1
37    34    32    1
@<TRIPOS>SUBSTRUCTURE
1   LIG    1    
 
########## Name        : 1VRT.lig
########## Description : AM1BCC_CHARGES =  -0.0002 ORIGINAL_CHARGES =  -0.0000

@<TRIPOS>MOLECULE
1VRT.lig
34    37    1     0     0    
SMALL
USER_CHARGES
@<TRIPOS>ATOM
1     N1       4.0540  -36.9310   22.2210 N.ar    1  LIG  -0.6650  -0.6200 
2     C1       4.9660  -36.2380   22.9390 C.ar    1  LIG   0.3947   0.1600 
3     H1       6.0082  -36.2811   22.6707 H       1  LIG   0.0281   0.1500 
4     C2       4.6240  -35.4500   24.0360 C.ar    1  LIG  -0.2334  -0.1500 
5     H2       5.3884  -34.9151   24.5740 H       1  LIG   0.1480   0.1500 
6     C3       3.3050  -35.3690   24.4150 C.ar    1  LIG  -0.0698  -0.1435 
7     C4       2.3460  -36.0770   23.6860 C.ar    1  LIG  -0.0398   0.1170 
8     N2       0.9890  -36.0280   24.1030 N.am    1  LIG  -0.4596  -0.5470 
9     H3       0.7643  -35.9928   25.0860 H       1  LIG   0.3311   0.3700 
10    C5      -0.1450  -36.0180   23.4080 C.2     1  LIG   0.7361   0.5438 
11    C6      -0.1190  -36.0770   21.8860 C.ar    1  LIG  -0.2550   0.0862 
12    C7      -1.1230  -35.3990   21.1890 C.ar    1  LIG  -0.0321  -0.1500 
13    H4      -1.7552  -34.6955   21.7041 H       1  LIG   0.1623   0.1500 
14    C8      -1.2960  -35.6300   19.8690 C.ar    1  LIG  -0.2723  -0.1500 
15    H5      -2.0662  -35.1073   19.3273 H       1  LIG   0.1522   0.1500 
16    C9      -0.4670  -36.5450   19.2400 C.ar    1  LIG   0.4373   0.1600 
17    H6      -0.5947  -36.7554   18.1915 H       1  LIG   0.0280   0.1500 
18    N3       0.5220  -37.2120   19.8740 N.ar    1  LIG  -0.6893  -0.6200 
19    C10      0.7040  -36.9790   21.1800 C.ar    1  LIG   0.6480   0.4100 
20    N4       1.7670  -37.6730   21.8260 N.pl3   1  LIG  -0.6924  -0.3690 
21    C11      2.7540  -36.8570   22.5840 C.ar    1  LIG   0.5805   0.4100 
22    C12      2.9040  -34.5090   25.6010 C.3     1  LIG  -0.0620   0.1435 
23    H7       2.2235  -33.7630   25.2820 H       1  LIG   0.0570   0.0000 
24    H8       2.4436  -35.1154   26.3371 H       1  LIG   0.0495   0.0000 
25    H9       3.7654  -34.0491   26.0108 H       1  LIG   0.0519   0.0000 
26    O1      -1.2400  -35.9060   23.9770 O.2     1  LIG  -0.6361  -0.5700 
27    C13      2.3440  -38.7570   21.0360 C.3     1  LIG   0.1354   0.0690 
28    H10      3.1238  -38.3754   20.4296 H       1  LIG   0.0981   0.1000 
29    C14      2.9380  -39.8900   21.8010 C.3     1  LIG  -0.1181  -0.2000 
30    H11      3.8890  -40.1268   21.3997 H       1  LIG   0.0732   0.1000 
31    H12      3.0430  -39.6129   22.8177 H       1  LIG   0.0789   0.1000 
32    C15      1.6390  -40.0610   21.0880 C.3     1  LIG  -0.1196  -0.2000 
33    H13      0.6832  -39.9283   21.5242 H       1  LIG   0.0807   0.1000 
34    H14      1.5292  -40.4423   20.1061 H       1  LIG   0.0733   0.1000 
@<TRIPOS>BOND
1     2     1     ar
2     3     2     1
3     4     2     ar
4     5     4     1
5     6     4     ar
6     7     6     ar
7     8     7     1
8     9     8     1
9     10    8     1
10    11    10    1
11    12    11    ar
12    13    12    1
13    14    12    ar
14    15    14    1
15    16    14    ar
16    17    16    1
17    18    16    ar
18    19    11    ar
19    19    18    ar
20    20    19    1
21    21    1     ar
22    21    7     ar
23    21    20    1
24    22    6     1
25    23    22    1
26    24    22    1
27    25    22    1
28    26    10    2
29    27    20    1
30    28    27    1
31    29    27    1
32    30    29    1
33    31    29    1
34    32    27    1
35    32    29    1
36    33    32    1
37    34    32    1
@<TRIPOS>SUBSTRUCTURE
1   LIG    1    
 
########## Name        : 1VRT.lig
########## Description : AM1BCC_CHARGES =  -0.0002 ORIGINAL_CHARGES =  -0.0000

@<TRIPOS>MOLECULE
1VRT.lig
34    37    1     0     0    
SMALL
USER_CHARGES
@<TRIPOS>ATOM
1     N1       4.0540  -36.9310   22.2210 N.ar    1  LIG  -0.6650  -0.6200 
2     C1       4.9660  -36.2380   22.9390 C.ar    1  LIG   0.3947   0.1600 
3     H1       6.0082  -36.2811   22.6707 H       1  LIG   0.0281   0.1500 
4     C2       4.6240  -35.4500   24.0360 C.ar    1  LIG  -0.2334  -0.1500 
5     H2       5.3884  -34.9151   24.5740 H       1  LIG   0.1480   0.1500 
6     C3       3.3050  -35.3690   24.4150 C.ar    1  LIG  -0.0698  -0.1435 
7     C4       2.3460  -36.0770   23.6860 C.ar    1  LIG  -0.0398   0.1170 
8     N2       0.9890  -36.0280   24.1030 N.am    1  LIG  -0.4596  -0.5470 
9     H3       0.7643  -35.9928   25.0860 H       1  LIG   0.3311   0.3700 
10    C5      -0.1450  -36.0180   23.4080 C.2     1  LIG   0.7361   0.5438 
11    C6      -0.1190  -36.0770   21.8860 C.ar    1  LIG  -0.2550   0.0862 
12    C7      -1.1230  -35.3990   21.1890 C.ar    1  LIG  -0.0321  -0.1500 
13    H4      -1.7552  -34.6955   21.7041 H       1  LIG   0.1623   0.1500 
14    C8      -1.2960  -35.6300   19.8690 C.ar    1  LIG  -0.2723  -0.1500 
15    H5      -2.0662  -35.1073   19.3273 H       1  LIG   0.1522   0.1500 
16    C9      -0.4670  -36.5450   19.2400 C.ar    1  LIG   0.4373   0.1600 
17    H6      -0.5947  -36.7554   18.1915 H       1  LIG   0.0280   0.1500 
18    N3       0.5220  -37.2120   19.8740 N.ar    1  LIG  -0.6893  -0.6200 
19    C10      0.7040  -36.9790   21.1800 C.ar    1  LIG   0.6480   0.4100 
20    N4       1.7670  -37.6730   21.8260 N.pl3   1  LIG  -0.6924  -0.3690 
21    C11      2.7540  -36.8570   22.5840 C.ar    1  LIG   0.5805   0.4100 
22    C12      2.9040  -34.5090   25.6010 C.3     1  LIG  -0.0620   0.1435 
23    H7       2.2235  -33.7630   25.2820 H       1  LIG   0.0570   0.0000 
24    H8       2.4436  -35.1154   26.3371 H       1  LIG   0.0495   0.0000 
25    H9       3.7654  -34.0491   26.0108 H       1  LIG   0.0519   0.0000 
26    O1      -1.2400  -35.9060   23.9770 O.2     1  LIG  -0.6361  -0.5700 
27    C13      2.3440  -38.7570   21.0360 C.3     1  LIG   0.1354   0.0690 
28    H10      3.1238  -38.3754   20.4296 H       1  LIG   0.0981   0.1000 
29    C14      2.9380  -39.8900   21.8010 C.3     1  LIG  -0.1181  -0.2000 
30    H11      3.8890  -40.1268   21.3997 H       1  LIG   0.0732   0.1000 
31    H12      3.0430  -39.6129   22.8177 H       1  LIG   0.0789   0.1000 
32    C15      1.6390  -40.0610   21.0880 C.3     1  LIG  -0.1196  -0.2000 
33    H13      0.6832  -39.9283   21.5242 H       1  LIG   0.0807   0.1000 
34    H14      1.5292  -40.4423   20.1061 H       1  LIG   0.0733   0.1000 
@<TRIPOS>BOND
1     2     1     ar
2     3     2     1
3     4     2     ar
4     5     4     1
5     6     4     ar
6     7     6     ar
7     8     7     1
8     9     8     1
9     10    8     1
10    11    10    1
11    12    11    ar
12    13    12    1
13    14    12    ar
14    15    14    1
15    16    14    ar
16    17    16    1
17    18    16    ar
18    19    11    ar
19    19    18    ar
20    20    19    1
21    21    1     ar
22    21    7     ar
23    21    20    1
24    22    6     1
25    23    22    1
26    24    22    1
27    25    22    1
28    26    10    2
29    27    20    1
30    28    27    1
31    29    27    1
32    30    29    1
33    31    29    1
34    32    27    1
35    32    29    1
36    33    32    1
37    34    32    1
@<TRIPOS>SUBSTRUCTURE
1   LIG    1    
 
########## Name        : 1VRT.lig
########## Description : AM1BCC_CHARGES =  -0.0002 ORIGINAL_CHARGES =  -0.0000

@<TRIPOS>MOLECULE
1VRT.lig
34    37    1     0     0    
SMALL
USER_CHARGES
@<TRIPOS>ATOM
1     N1       4.0540  -36.9310   22.2210 N.ar    1  LIG  -0.6650  -0.6200 
2     C1       4.9660  -36.2380   22.9390 C.ar    1  LIG   0.3947   0.1600 
3     H1       6.0082  -36.2811   22.6707 H       1  LIG   0.0281   0.1500 
4     C2       4.6240  -35.4500   24.0360 C.ar    1  LIG  -0.2334  -0.1500 
5     H2       5.3884  -34.9151   24.5740 H       1  LIG   0.1480   0.1500 
6     C3       3.3050  -35.3690   24.4150 C.ar    1  LIG  -0.0698  -0.1435 
7     C4       2.3460  -36.0770   23.6860 C.ar    1  LIG  -0.0398   0.1170 
8     N2       0.9890  -36.0280   24.1030 N.am    1  LIG  -0.4596  -0.5470 
9     H3       0.7643  -35.9928   25.0860 H       1  LIG   0.3311   0.3700 
10    C5      -0.1450  -36.0180   23.4080 C.2     1  LIG   0.7361   0.5438 
11    C6      -0.1190  -36.0770   21.8860 C.ar    1  LIG  -0.2550   0.0862 
12    C7      -1.1230  -35.3990   21.1890 C.ar    1  LIG  -0.0321  -0.1500 
13    H4      -1.7552  -34.6955   21.7041 H       1  LIG   0.1623   0.1500 
14    C8      -1.2960  -35.6300   19.8690 C.ar    1  LIG  -0.2723  -0.1500 
15    H5      -2.0662  -35.1073   19.3273 H       1  LIG   0.1522   0.1500 
16    C9      -0.4670  -36.5450   19.2400 C.ar    1  LIG   0.4373   0.1600 
17    H6      -0.5947  -36.7554   18.1915 H       1  LIG   0.0280   0.1500 
18    N3       0.5220  -37.2120   19.8740 N.ar    1  LIG  -0.6893  -0.6200 
19    C10      0.7040  -36.9790   21.1800 C.ar    1  LIG   0.6480   0.4100 
20    N4       1.7670  -37.6730   21.8260 N.pl3   1  LIG  -0.6924  -0.3690 
21    C11      2.7540  -36.8570   22.5840 C.ar    1  LIG   0.5805   0.4100 
22    C12      2.9040  -34.5090   25.6010 C.3     1  LIG  -0.0620   0.1435 
23    H7       2.2235  -33.7630   25.2820 H       1  LIG   0.0570   0.0000 
24    H8       2.4436  -35.1154   26.3371 H       1  LIG   0.0495   0.0000 
25    H9       3.7654  -34.0491   26.0108 H       1  LIG   0.0519   0.0000 
26    O1      -1.2400  -35.9060   23.9770 O.2     1  LIG  -0.6361  -0.5700 
27    C13      2.3440  -38.7570   21.0360 C.3     1  LIG   0.1354   0.0690 
28    H10      3.1238  -38.3754   20.4296 H       1  LIG   0.0981   0.1000 
29    C14      2.9380  -39.8900   21.8010 C.3     1  LIG  -0.1181  -0.2000 
30    H11      3.8890  -40.1268   21.3997 H       1  LIG   0.0732   0.1000 
31    H12      3.0430  -39.6129   22.8177 H       1  LIG   0.0789   0.1000 
32    C15      1.6390  -40.0610   21.0880 C.3     1  LIG  -0.1196  -0.2000 
33    H13      0.6832  -39.9283   21.5242 H       1  LIG   0.0807   0.1000 
34    H14      1.5292  -40.4423   20.1061 H       1  LIG   0.0733   0.1000 
@<TRIPOS>BOND
1     2     1     ar
2     3     2     1
3     4     2     ar
4     5     4     1
5     6     4     ar
6     7     6     ar
7     8     7     1
8     9     8     1
9     10    8     1
10    11    10    1
11    12    11    ar
12    13    12    1
13    14    12    ar
14    15    14    1
15    16    14    ar
16    17    16    1
17    18    16    ar
18    19    11    ar
19    19    18    ar
20    20    19    1
21    21    1     ar
22    21    7     ar
23    21    20    1
24    22    6     1
25    23    22    1
26    24    22    1
27    25    22    1
28    26    10    2
29    27    20    1
30    28    27    1
31    29    27    1
32    30    29    1
33    31    29    1
34    32    27    1
35    32    29    1
36    33    32    1
37    34    32    1
@<TRIPOS>SUBSTRUCTURE
1   LIG    1    
 
########## Name        : 1VRT.lig
########## Description : AM1BCC_CHARGES =  -0.0002 ORIGINAL_CHARGES =  -0.0000

@<TRIPOS>MOLECULE
1VRT.lig
34    37    1     0     0    
SMALL
USER_CHARGES
@<TRIPOS>ATOM
1     N1       4.0540  -36.9310   22.2210 N.ar    1  LIG  -0.6650  -0.6200 
2     C1       4.9660  -36.2380   22.9390 C.ar    1  LIG   0.3947   0.1600 
3     H1       6.0082  -36.2811   22.6707 H       1  LIG   0.0281   0.1500 
4     C2       4.6240  -35.4500   24.0360 C.ar    1  LIG  -0.2334  -0.1500 
5     H2       5.3884  -34.9151   24.5740 H       1  LIG   0.1480   0.1500 
6     C3       3.3050  -35.3690   24.4150 C.ar    1  LIG  -0.0698  -0.1435 
7     C4       2.3460  -36.0770   23.6860 C.ar    1  LIG  -0.0398   0.1170 
8     N2       0.9890  -36.0280   24.1030 N.am    1  LIG  -0.4596  -0.5470 
9     H3       0.7643  -35.9928   25.0860 H       1  LIG   0.3311   0.3700 
10    C5      -0.1450  -36.0180   23.4080 C.2     1  LIG   0.7361   0.5438 
11    C6      -0.1190  -36.0770   21.8860 C.ar    1  LIG  -0.2550   0.0862 
12    C7      -1.1230  -35.3990   21.1890 C.ar    1  LIG  -0.0321  -0.1500 
13    H4      -1.7552  -34.6955   21.7041 H       1  LIG   0.1623   0.1500 
14    C8      -1.2960  -35.6300   19.8690 C.ar    1  LIG  -0.2723  -0.1500 
15    H5      -2.0662  -35.1073   19.3273 H       1  LIG   0.1522   0.1500 
16    C9      -0.4670  -36.5450   19.2400 C.ar    1  LIG   0.4373   0.1600 
17    H6      -0.5947  -36.7554   18.1915 H       1  LIG   0.0280   0.1500 
18    N3       0.5220  -37.2120   19.8740 N.ar    1  LIG  -0.6893  -0.6200 
19    C10      0.7040  -36.9790   21.1800 C.ar    1  LIG   0.6480   0.4100 
20    N4       1.7670  -37.6730   21.8260 N.pl3   1  LIG  -0.6924  -0.3690 
21    C11      2.7540  -36.8570   22.5840 C.ar    1  LIG   0.5805   0.4100 
22    C12      2.9040  -34.5090   25.6010 C.3     1  LIG  -0.0620   0.1435 
23    H7       2.2235  -33.7630   25.2820 H       1  LIG   0.0570   0.0000 
24    H8       2.4436  -35.1154   26.3371 H       1  LIG   0.0495   0.0000 
25    H9       3.7654  -34.0491   26.0108 H       1  LIG   0.0519   0.0000 
26    O1      -1.2400  -35.9060   23.9770 O.2     1  LIG  -0.6361  -0.5700 
27    C13      2.3440  -38.7570   21.0360 C.3     1  LIG   0.1354   0.0690 
28    H10      3.1238  -38.3754   20.4296 H       1  LIG   0.0981   0.1000 
29    C14      2.9380  -39.8900   21.8010 C.3     1  LIG  -0.1181  -0.2000 
30    H11      3.8890  -40.1268   21.3997 H       1  LIG   0.0732   0.1000 
31    H12      3.0430  -39.6129   22.8177 H       1  LIG   0.0789   0.1000 
32    C15      1.6390  -40.0610   21.0880 C.3     1  LIG  -0.1196  -0.2000 
33    H13      0.6832  -39.9283   21.5242 H       1  LIG   0.0807   0.1000 
34    H14      1.5292  -40.4423   20.1061 H       1  LIG   0.0733   0.1000 
@<TRIPOS>BOND
1     2     1     ar
2     3     2     1
3     4     2     ar
4     5     4     1
5     6     4     ar
6     7     6     ar
7     8     7     1
8     9     8     1
9     10    8     1
10    11    10    1
11    12    11    ar
12    13    12    1
13    14    12    ar
14    15    14    1
15    16    14    ar
16    17    16    1
17    18    16    ar
18    19    11    ar
19    19    18    ar
20    20    19    1
21    21    1     ar
22    21    7     ar
23    21    20    1
24    22    6     1
25    23    22    1
26    24    22    1
27    25    22    1
28    26    10    2
29    27    20    1
30    28    27    1
31    29    27    1
32    30    29    1
33    31    29    1
34    32    27    1
35    32    29    1
36    33    32    1
37    34    32    1
@<TRIPOS>SUBSTRUCTURE
1   LIG    1    
 
########## Name        : 1VRT.lig
########## Description : AM1BCC_CHARGES =  -0.0002 ORIGINAL_CHARGES =  -0.0000

@<TRIPOS>MOLECULE
1VRT.lig
34    37    1     0     0    
SMALL
USER_CHARGES
@<TRIPOS>ATOM
1     N1       4.0540  -36.9310   22.2210 N.ar    1  LIG  -0.6650  -0.6200 
2     C1       4.9660  -36.2380   22.9390 C.ar    1  LIG   0.3947   0.1600 
3     H1       6.0082  -36.2811   22.6707 H       1  LIG   0.0281   0.1500 
4     C2       4.6240  -35.4500   24.0360 C.ar    1  LIG  -0.2334  -0.1500 
5     H2       5.3884  -34.9151   24.5740 H       1  LIG   0.1480   0.1500 
6     C3       3.3050  -35.3690   24.4150 C.ar    1  LIG  -0.0698  -0.1435 
7     C4       2.3460  -36.0770   23.6860 C.ar    1  LIG  -0.0398   0.1170 
8     N2       0.9890  -36.0280   24.1030 N.am    1  LIG  -0.4596  -0.5470 
9     H3       0.7643  -35.9928   25.0860 H       1  LIG   0.3311   0.3700 
10    C5      -0.1450  -36.0180   23.4080 C.2     1  LIG   0.7361   0.5438 
11    C6      -0.1190  -36.0770   21.8860 C.ar    1  LIG  -0.2550   0.0862 
12    C7      -1.1230  -35.3990   21.1890 C.ar    1  LIG  -0.0321  -0.1500 
13    H4      -1.7552  -34.6955   21.7041 H       1  LIG   0.1623   0.1500 
14    C8      -1.2960  -35.6300   19.8690 C.ar    1  LIG  -0.2723  -0.1500 
15    H5      -2.0662  -35.1073   19.3273 H       1  LIG   0.1522   0.1500 
16    C9      -0.4670  -36.5450   19.2400 C.ar    1  LIG   0.4373   0.1600 
17    H6      -0.5947  -36.7554   18.1915 H       1  LIG   0.0280   0.1500 
18    N3       0.5220  -37.2120   19.8740 N.ar    1  LIG  -0.6893  -0.6200 
19    C10      0.7040  -36.9790   21.1800 C.ar    1  LIG   0.6480   0.4100 
20    N4       1.7670  -37.6730   21.8260 N.pl3   1  LIG  -0.6924  -0.3690 
21    C11      2.7540  -36.8570   22.5840 C.ar    1  LIG   0.5805   0.4100 
22    C12      2.9040  -34.5090   25.6010 C.3     1  LIG  -0.0620   0.1435 
23    H7       2.2235  -33.7630   25.2820 H       1  LIG   0.0570   0.0000 
24    H8       2.4436  -35.1154   26.3371 H       1  LIG   0.0495   0.0000 
25    H9       3.7654  -34.0491   26.0108 H       1  LIG   0.0519   0.0000 
26    O1      -1.2400  -35.9060   23.9770 O.2     1  LIG  -0.6361  -0.5700 
27    C13      2.3440  -38.7570   21.0360 C.3     1  LIG   0.1354   0.0690 
28    H10      3.1238  -38.3754   20.4296 H       1  LIG   0.0981   0.1000 
29    C14      2.9380  -39.8900   21.8010 C.3     1  LIG  -0.1181  -0.2000 
30    H11      3.8890  -40.1268   21.3997 H       1  LIG   0.0732   0.1000 
31    H12      3.0430  -39.6129   22.8177 H       1  LIG   0.0789   0.1000 
32    C15      1.6390  -40.0610   21.0880 C.3     1  LIG  -0.1196  -0.2000 
33    H13      0.6832  -39.9283   21.5242 H       1  LIG   0.0807   0.1000 
34    H14      1.5292  -40.4423   20.1061 H       1  LIG   0.0733   0.1000 
@<TRIPOS>BOND
1     2     1     ar
2     3     2     1
3     4     2     ar
4     5     4     1
5     6     4     ar
6     7     6     ar
7     8     7     1
8     9     8     1
9     10    8     1
10    11    10    1
11    12    11    ar
12    13    12    1
13    14    12    ar
14    15    14    1
15    16    14    ar
16    17    16    1
17    18    16    ar
18    19    11    ar
19    19    18    ar
20    20    19    1
21    21    1     ar
22    21    7     ar
23    21    20    1
24    22    6     1
25    23    22    1
26    24    22    1
27    25    22    1
28    26    10    2
29    27    20    1
30    28    27    1
31    29    27    1
32    30    29    1
33    31    29    1
34    32    27    1
35    32    29    1
36    33    32    1
37    34    32    1
@<TRIPOS>SUBSTRUCTURE
1   LIG    1    
 
########## Name        : 1VRT.lig
########## Description : AM1BCC_CHARGES =  -0.0002 ORIGINAL_CHARGES =  -0.0000

@<TRIPOS>MOLECULE
1VRT.lig
34    37    1     0     0    
SMALL
USER_CHARGES
@<TRIPOS>ATOM
1     N1       4.0540  -36.9310   22.2210 N.ar    1  LIG  -0.6650  -0.6200 
2     C1       4.9660  -36.2380   22.9390 C.ar    1  LIG   0.3947   0.1600 
3     H1       6.0082  -36.2811   22.6707 H       1  LIG   0.0281   0.1500 
4     C2       4.6240  -35.4500   24.0360 C.ar    1  LIG  -0.2334  -0.1500 
5     H2       5.3884  -34.9151   24.5740 H       1  LIG   0.1480   0.1500 
6     C3       3.3050  -35.3690   24.4150 C.ar    1  LIG  -0.0698  -0.1435 
7     C4       2.3460  -36.0770   23.6860 C.ar    1  LIG  -0.0398   0.1170 
8     N2       0.9890  -36.0280   24.1030 N.am    1  LIG  -0.4596  -0.5470 
9     H3       0.7643  -35.9928   25.0860 H       1  LIG   0.3311   0.3700 
10    C5      -0.1450  -36.0180   23.4080 C.2     1  LIG   0.7361   0.5438 
11    C6      -0.1190  -36.0770   21.8860 C.ar    1  LIG  -0.2550   0.0862 
12    C7      -1.1230  -35.3990   21.1890 C.ar    1  LIG  -0.0321  -0.1500 
13    H4      -1.7552  -34.6955   21.7041 H       1  LIG   0.1623   0.1500 
14    C8      -1.2960  -35.6300   19.8690 C.ar    1  LIG  -0.2723  -0.1500 
15    H5      -2.0662  -35.1073   19.3273 H       1  LIG   0.1522   0.1500 
16    C9      -0.4670  -36.5450   19.2400 C.ar    1  LIG   0.4373   0.1600 
17    H6      -0.5947  -36.7554   18.1915 H       1  LIG   0.0280   0.1500 
18    N3       0.5220  -37.2120   19.8740 N.ar    1  LIG  -0.6893  -0.6200 
19    C10      0.7040  -36.9790   21.1800 C.ar    1  LIG   0.6480   0.4100 
20    N4       1.7670  -37.6730   21.8260 N.pl3   1  LIG  -0.6924  -0.3690 
21    C11      2.7540  -36.8570   22.5840 C.ar    1  LIG   0.5805   0.4100 
22    C12      2.9040  -34.5090   25.6010 C.3     1  LIG  -0.0620   0.1435 
23    H7       2.2235  -33.7630   25.2820 H       1  LIG   0.0570   0.0000 
24    H8       2.4436  -35.1154   26.3371 H       1  LIG   0.0495   0.0000 
25    H9       3.7654  -34.0491   26.0108 H       1  LIG   0.0519   0.0000 
26    O1      -1.2400  -35.9060   23.9770 O.2     1  LIG  -0.6361  -0.5700 
27    C13      2.3440  -38.7570   21.0360 C.3     1  LIG   0.1354   0.0690 
28    H10      3.1238  -38.3754   20.4296 H       1  LIG   0.0981   0.1000 
29    C14      2.9380  -39.8900   21.8010 C.3     1  LIG  -0.1181  -0.2000 
30    H11      3.8890  -40.1268   21.3997 H       1  LIG   0.0732   0.1000 
31    H12      3.0430  -39.6129   22.8177 H       1  LIG   0.0789   0.1000 
32    C15      1.6390  -40.0610   21.0880 C.3     1  LIG  -0.1196  -0.2000 
33    H13      0.6832  -39.9283   21.5242 H       1  LIG   0.0807   0.1000 
34    H14      1.5292  -40.4423   20.1061 H       1  LIG   0.0733   0.1000 
@<TRIPOS>BOND
1     2     1     ar
2     3     2     1
3     4     2     ar
4     5     4     1
5     6     4     ar
6     7     6     ar
7     8     7     1
8     9     8     1
9     10    8     1
10    11    10    1
11    12    11    ar
12    13    12    1
13    14    12    ar
14    15    14    1
15    16    14    ar
16    17    16    1
17    18    16    ar
18    19    11    ar
19    19    18    ar
20    20    19    1
21    21    1     ar
22    21    7     ar
23    21    20    1
24    22    6     1
25    23    22    1
26    24    22    1
27    25    22    1
28    26    10    2
29    27    20    1
30    28    27    1
31    29    27    1
32    30    29    1
33    31    29    1
34    32    27    1
35    32    29    1
36    33    32    1
37    34    32    1
@<TRIPOS>SUBSTRUCTURE
1   LIG    1    
 
########## Name        : 1VRT.lig
########## Description : AM1BCC_CHARGES =  -0.0002 ORIGINAL_CHARGES =  -0.0000

@<TRIPOS>MOLECULE
1VRT.lig
34    37    1     0     0    
SMALL
USER_CHARGES
@<TRIPOS>ATOM
1     N1       4.0540  -36.9310   22.2210 N.ar    1  LIG  -0.6650  -0.6200 
2     C1       4.9660  -36.2380   22.9390 C.ar    1  LIG   0.3947   0.1600 
3     H1       6.0082  -36.2811   22.6707 H       1  LIG   0.0281   0.1500 
4     C2       4.6240  -35.4500   24.0360 C.ar    1  LIG  -0.2334  -0.1500 
5     H2       5.3884  -34.9151   24.5740 H       1  LIG   0.1480   0.1500 
6     C3       3.3050  -35.3690   24.4150 C.ar    1  LIG  -0.0698  -0.1435 
7     C4       2.3460  -36.0770   23.6860 C.ar    1  LIG  -0.0398   0.1170 
8     N2       0.9890  -36.0280   24.1030 N.am    1  LIG  -0.4596  -0.5470 
9     H3       0.7643  -35.9928   25.0860 H       1  LIG   0.3311   0.3700 
10    C5      -0.1450  -36.0180   23.4080 C.2     1  LIG   0.7361   0.5438 
11    C6      -0.1190  -36.0770   21.8860 C.ar    1  LIG  -0.2550   0.0862 
12    C7      -1.1230  -35.3990   21.1890 C.ar    1  LIG  -0.0321  -0.1500 
13    H4      -1.7552  -34.6955   21.7041 H       1  LIG   0.1623   0.1500 
14    C8      -1.2960  -35.6300   19.8690 C.ar    1  LIG  -0.2723  -0.1500 
15    H5      -2.0662  -35.1073   19.3273 H       1  LIG   0.1522   0.1500 
16    C9      -0.4670  -36.5450   19.2400 C.ar    1  LIG   0.4373   0.1600 
17    H6      -0.5947  -36.7554   18.1915 H       1  LIG   0.0280   0.1500 
18    N3       0.5220  -37.2120   19.8740 N.ar    1  LIG  -0.6893  -0.6200 
19    C10      0.7040  -36.9790   21.1800 C.ar    1  LIG   0.6480   0.4100 
20    N4       1.7670  -37.6730   21.8260 N.pl3   1  LIG  -0.6924  -0.3690 
21    C11      2.7540  -36.8570   22.5840 C.ar    1  LIG   0.5805   0.4100 
22    C12      2.9040  -34.5090   25.6010 C.3     1  LIG  -0.0620   0.1435 
23    H7       2.2235  -33.7630   25.2820 H       1  LIG   0.0570   0.0000 
24    H8       2.4436  -35.1154   26.3371 H       1  LIG   0.0495   0.0000 
25    H9       3.7654  -34.0491   26.0108 H       1  LIG   0.0519   0.0000 
26    O1      -1.2400  -35.9060   23.9770 O.2     1  LIG  -0.6361  -0.5700 
27    C13      2.3440  -38.7570   21.0360 C.3     1  LIG   0.1354   0.0690 
28    H10      3.1238  -38.3754   20.4296 H       1  LIG   0.0981   0.1000 
29    C14      2.9380  -39.8900   21.8010 C.3     1  LIG  -0.1181  -0.2000 
30    H11      3.8890  -40.1268   21.3997 H       1  LIG   0.0732   0.1000 
31    H12      3.0430  -39.6129   22.8177 H       1  LIG   0.0789   0.1000 
32    C15      1.6390  -40.0610   21.0880 C.3     1  LIG  -0.1196  -0.2000 
33    H13      0.6832  -39.9283   21.5242 H       1  LIG   0.0807   0.1000 
34    H14      1.5292  -40.4423   20.1061 H       1  LIG   0.0733   0.1000 
@<TRIPOS>BOND
1     2     1     ar
2     3     2     1
3     4     2     ar
4     5     4     1
5     6     4     ar
6     7     6     ar
7     8     7     1
8     9     8     1
9     10    8     1
10    11    10    1
11    12    11    ar
12    13    12    1
13    14    12    ar
14    15    14    1
15    16    14    ar
16    17    16    1
17    18    16    ar
18    19    11    ar
19    19    18    ar
20    20    19    1
21    21    1     ar
22    21    7     ar
23    21    20    1
24    22    6     1
25    23    22    1
26    24    22    1
27    25    22    1
28    26    10    2
29    27    20    1
30    28    27    1
31    29    27    1
32    30    29    1
33    31    29    1
34    32    27    1
35    32    29    1
36    33    32    1
37    34    32    1
@<TRIPOS>SUBSTRUCTURE
1   LIG    1    
 
########## Name        : 1VRT.lig
########## Description : AM1BCC_CHARGES =  -0.0002 ORIGINAL_CHARGES =  -0.0000

@<TRIPOS>MOLECULE
1VRT.lig
34    37    1     0     0    
SMALL
USER_CHARGES
@<TRIPOS>ATOM
1     N1       4.0540  -36.9310   22.2210 N.ar    1  LIG  -0.6650  -0.6200 
2     C1       4.9660  -36.2380   22.9390 C.ar    1  LIG   0.3947   0.1600 
3     H1       6.0082  -36.2811   22.6707 H       1  LIG   0.0281   0.1500 
4     C2       4.6240  -35.4500   24.0360 C.ar    1  LIG  -0.2334  -0.1500 
5     H2       5.3884  -34.9151   24.5740 H       1  LIG   0.1480   0.1500 
6     C3       3.3050  -35.3690   24.4150 C.ar    1  LIG  -0.0698  -0.1435 
7     C4       2.3460  -36.0770   23.6860 C.ar    1  LIG  -0.0398   0.1170 
8     N2       0.9890  -36.0280   24.1030 N.am    1  LIG  -0.4596  -0.5470 
9     H3       0.7643  -35.9928   25.0860 H       1  LIG   0.3311   0.3700 
10    C5      -0.1450  -36.0180   23.4080 C.2     1  LIG   0.7361   0.5438 
11    C6      -0.1190  -36.0770   21.8860 C.ar    1  LIG  -0.2550   0.0862 
12    C7      -1.1230  -35.3990   21.1890 C.ar    1  LIG  -0.0321  -0.1500 
13    H4      -1.7552  -34.6955   21.7041 H       1  LIG   0.1623   0.1500 
14    C8      -1.2960  -35.6300   19.8690 C.ar    1  LIG  -0.2723  -0.1500 
15    H5      -2.0662  -35.1073   19.3273 H       1  LIG   0.1522   0.1500 
16    C9      -0.4670  -36.5450   19.2400 C.ar    1  LIG   0.4373   0.1600 
17    H6      -0.5947  -36.7554   18.1915 H       1  LIG   0.0280   0.1500 
18    N3       0.5220  -37.2120   19.8740 N.ar    1  LIG  -0.6893  -0.6200 
19    C10      0.7040  -36.9790   21.1800 C.ar    1  LIG   0.6480   0.4100 
20    N4       1.7670  -37.6730   21.8260 N.pl3   1  LIG  -0.6924  -0.3690 
21    C11      2.7540  -36.8570   22.5840 C.ar    1  LIG   0.5805   0.4100 
22    C12      2.9040  -34.5090   25.6010 C.3     1  LIG  -0.0620   0.1435 
23    H7       2.2235  -33.7630   25.2820 H       1  LIG   0.0570   0.0000 
24    H8       2.4436  -35.1154   26.3371 H       1  LIG   0.0495   0.0000 
25    H9       3.7654  -34.0491   26.0108 H       1  LIG   0.0519   0.0000 
26    O1      -1.2400  -35.9060   23.9770 O.2     1  LIG  -0.6361  -0.5700 
27    C13      2.3440  -38.7570   21.0360 C.3     1  LIG   0.1354   0.0690 
28    H10      3.1238  -38.3754   20.4296 H       1  LIG   0.0981   0.1000 
29    C14      2.9380  -39.8900   21.8010 C.3     1  LIG  -0.1181  -0.2000 
30    H11      3.8890  -40.1268   21.3997 H       1  LIG   0.0732   0.1000 
31    H12      3.0430  -39.6129   22.8177 H       1  LIG   0.0789   0.1000 
32    C15      1.6390  -40.0610   21.0880 C.3     1  LIG  -0.1196  -0.2000 
33    H13      0.6832  -39.9283   21.5242 H       1  LIG   0.0807   0.1000 
34    H14      1.5292  -40.4423   20.1061 H       1  LIG   0.0733   0.1000 
@<TRIPOS>BOND
1     2     1     ar
2     3     2     1
3     4     2     ar
4     5     4     1
5     6     4     ar
6     7     6     ar
7     8     7     1
8     9     8     1
9     10    8     1
10    11    10    1
11    12    11    ar
12    13    12    1
13    14    12    ar
14    15    14    1
15    16    14    ar
16    17    16    1
17    18    16    ar
18    19    11    ar
19    19    18    ar
20    20    19    1
21    21    1     ar
22    21    7     ar
23    21    20    1
24    22    6     1
25    23    22    1
26    24    22    1
27    25    22    1
28    26    10    2
29    27    20    1
30    28    27    1
31    29    27    1
32    30    29    1
33    31    29    1
34    32    27    1
35    32    29    1
36    33    32    1
37    34    32    1
@<TRIPOS>SUBSTRUCTURE
1   LIG    1    
 
########## Name        : 1VRT.lig
########## Description : AM1BCC_CHARGES =  -0.0002 ORIGINAL_CHARGES =  -0.0000

@<TRIPOS>MOLECULE
1VRT.lig
34    37    1     0     0    
SMALL
USER_CHARGES
@<TRIPOS>ATOM
1     N1       4.0540  -36.9310   22.2210 N.ar    1  LIG  -0.6650  -0.6200 
2     C1       4.9660  -36.2380   22.9390 C.ar    1  LIG   0.3947   0.1600 
3     H1       6.0082  -36.2811   22.6707 H       1  LIG   0.0281   0.1500 
4     C2       4.6240  -35.4500   24.0360 C.ar    1  LIG  -0.2334  -0.1500 
5     H2       5.3884  -34.9151   24.5740 H       1  LIG   0.1480   0.1500 
6     C3       3.3050  -35.3690   24.4150 C.ar    1  LIG  -0.0698  -0.1435 
7     C4       2.3460  -36.0770   23.6860 C.ar    1  LIG  -0.0398   0.1170 
8     N2       0.9890  -36.0280   24.1030 N.am    1  LIG  -0.4596  -0.5470 
9     H3       0.7643  -35.9928   25.0860 H       1  LIG   0.3311   0.3700 
10    C5      -0.1450  -36.0180   23.4080 C.2     1  LIG   0.7361   0.5438 
11    C6      -0.1190  -36.0770   21.8860 C.ar    1  LIG  -0.2550   0.0862 
12    C7      -1.1230  -35.3990   21.1890 C.ar    1  LIG  -0.0321  -0.1500 
13    H4      -1.7552  -34.6955   21.7041 H       1  LIG   0.1623   0.1500 
14    C8      -1.2960  -35.6300   19.8690 C.ar    1  LIG  -0.2723  -0.1500 
15    H5      -2.0662  -35.1073   19.3273 H       1  LIG   0.1522   0.1500 
16    C9      -0.4670  -36.5450   19.2400 C.ar    1  LIG   0.4373   0.1600 
17    H6      -0.5947  -36.7554   18.1915 H       1  LIG   0.0280   0.1500 
18    N3       0.5220  -37.2120   19.8740 N.ar    1  LIG  -0.6893  -0.6200 
19    C10      0.7040  -36.9790   21.1800 C.ar    1  LIG   0.6480   0.4100 
20    N4       1.7670  -37.6730   21.8260 N.pl3   1  LIG  -0.6924  -0.3690 
21    C11      2.7540  -36.8570   22.5840 C.ar    1  LIG   0.5805   0.4100 
22    C12      2.9040  -34.5090   25.6010 C.3     1  LIG  -0.0620   0.1435 
23    H7       2.2235  -33.7630   25.2820 H       1  LIG   0.0570   0.0000 
24    H8       2.4436  -35.1154   26.3371 H       1  LIG   0.0495   0.0000 
25    H9       3.7654  -34.0491   26.0108 H       1  LIG   0.0519   0.0000 
26    O1      -1.2400  -35.9060   23.9770 O.2     1  LIG  -0.6361  -0.5700 
27    C13      2.3440  -38.7570   21.0360 C.3     1  LIG   0.1354   0.0690 
28    H10      3.1238  -38.3754   20.4296 H       1  LIG   0.0981   0.1000 
29    C14      2.9380  -39.8900   21.8010 C.3     1  LIG  -0.1181  -0.2000 
30    H11      3.8890  -40.1268   21.3997 H       1  LIG   0.0732   0.1000 
31    H12      3.0430  -39.6129   22.8177 H       1  LIG   0.0789   0.1000 
32    C15      1.6390  -40.0610   21.0880 C.3     1  LIG  -0.1196  -0.2000 
33    H13      0.6832  -39.9283   21.5242 H       1  LIG   0.0807   0.1000 
34    H14      1.5292  -40.4423   20.1061 H       1  LIG   0.0733   0.1000 
@<TRIPOS>BOND
1     2     1     ar
2     3     2     1
3     4     2     ar
4     5     4     1
5     6     4     ar
6     7     6     ar
7     8     7     1
8     9     8     1
9     10    8     1
10    11    10    1
11    12    11    ar
12    13    12    1
13    14    12    ar
14    15    14    1
15    16    14    ar
16    17    16    1
17    18    16    ar
18    19    11    ar
19    19    18    ar
20    20    19    1
21    21    1     ar
22    21    7     ar
23    21    20    1
24    22    6     1
25    23    22    1
26    24    22    1
27    25    22    1
28    26    10    2
29    27    20    1
30    28    27    1
31    29    27    1
32    30    29    1
33    31    29    1
34    32    27    1
35    32    29    1
36    33    32    1
37    34    32    1
@<TRIPOS>SUBSTRUCTURE
1   LIG    1    
 
########## Name        : 1VRT.lig
########## Description : AM1BCC_CHARGES =  -0.0002 ORIGINAL_CHARGES =  -0.0000

@<TRIPOS>MOLECULE
1VRT.lig
34    37    1     0     0    
SMALL
USER_CHARGES
@<TRIPOS>ATOM
1     N1       4.0540  -36.9310   22.2210 N.ar    1  LIG  -0.6650  -0.6200 
2     C1       4.9660  -36.2380   22.9390 C.ar    1  LIG   0.3947   0.1600 
3     H1       6.0082  -36.2811   22.6707 H       1  LIG   0.0281   0.1500 
4     C2       4.6240  -35.4500   24.0360 C.ar    1  LIG  -0.2334  -0.1500 
5     H2       5.3884  -34.9151   24.5740 H       1  LIG   0.1480   0.1500 
6     C3       3.3050  -35.3690   24.4150 C.ar    1  LIG  -0.0698  -0.1435 
7     C4       2.3460  -36.0770   23.6860 C.ar    1  LIG  -0.0398   0.1170 
8     N2       0.9890  -36.0280   24.1030 N.am    1  LIG  -0.4596  -0.5470 
9     H3       0.7643  -35.9928   25.0860 H       1  LIG   0.3311   0.3700 
10    C5      -0.1450  -36.0180   23.4080 C.2     1  LIG   0.7361   0.5438 
11    C6      -0.1190  -36.0770   21.8860 C.ar    1  LIG  -0.2550   0.0862 
12    C7      -1.1230  -35.3990   21.1890 C.ar    1  LIG  -0.0321  -0.1500 
13    H4      -1.7552  -34.6955   21.7041 H       1  LIG   0.1623   0.1500 
14    C8      -1.2960  -35.6300   19.8690 C.ar    1  LIG  -0.2723  -0.1500 
15    H5      -2.0662  -35.1073   19.3273 H       1  LIG   0.1522   0.1500 
16    C9      -0.4670  -36.5450   19.2400 C.ar    1  LIG   0.4373   0.1600 
17    H6      -0.5947  -36.7554   18.1915 H       1  LIG   0.0280   0.1500 
18    N3       0.5220  -37.2120   19.8740 N.ar    1  LIG  -0.6893  -0.6200 
19    C10      0.7040  -36.9790   21.1800 C.ar    1  LIG   0.6480   0.4100 
20    N4       1.7670  -37.6730   21.8260 N.pl3   1  LIG  -0.6924  -0.3690 
21    C11      2.7540  -36.8570   22.5840 C.ar    1  LIG   0.5805   0.4100 
22    C12      2.9040  -34.5090   25.6010 C.3     1  LIG  -0.0620   0.1435 
23    H7       2.2235  -33.7630   25.2820 H       1  LIG   0.0570   0.0000 
24    H8       2.4436  -35.1154   26.3371 H       1  LIG   0.0495   0.0000 
25    H9       3.7654  -34.0491   26.0108 H       1  LIG   0.0519   0.0000 
26    O1      -1.2400  -35.9060   23.9770 O.2     1  LIG  -0.6361  -0.5700 
27    C13      2.3440  -38.7570   21.0360 C.3     1  LIG   0.1354   0.0690 
28    H10      3.1238  -38.3754   20.4296 H       1  LIG   0.0981   0.1000 
29    C14      2.9380  -39.8900   21.8010 C.3     1  LIG  -0.1181  -0.2000 
30    H11      3.8890  -40.1268   21.3997 H       1  LIG   0.0732   0.1000 
31    H12      3.0430  -39.6129   22.8177 H       1  LIG   0.0789   0.1000 
32    C15      1.6390  -40.0610   21.0880 C.3     1  LIG  -0.1196  -0.2000 
33    H13      0.6832  -39.9283   21.5242 H       1  LIG   0.0807   0.1000 
34    H14      1.5292  -40.4423   20.1061 H       1  LIG   0.0733   0.1000 
@<TRIPOS>BOND
1     2     1     ar
2     3     2     1
3     4     2     ar
4     5     4     1
5     6     4     ar
6     7     6     ar
7     8     7     1
8     9     8     1
9     10    8     1
10    11    10    1
11    12    11    ar
12    13    12    1
13    14    12    ar
14    15    14    1
15    16    14    ar
16    17    16    1
17    18    16    ar
18    19    11    ar
19    19    18    ar
20    20    19    1
21    21    1     ar
22    21    7     ar
23    21    20    1
24    22    6     1
25    23    22    1
26    24    22    1
27    25    22    1
28    26    10    2
29    27    20    1
30    28    27    1
31    29    27    1
32    30    29    1
33    31    29    1
34    32    27    1
35    32    29    1
36    33    32    1
37    34    32    1
@<TRIPOS>SUBSTRUCTURE
1   LIG    1    
 
########## Name        : 1VRT.lig
########## Description : AM1BCC_CHARGES =  -0.0002 ORIGINAL_CHARGES =  -0.0000

@<TRIPOS>MOLECULE
1VRT.lig
34    37    1     0     0    
SMALL
USER_CHARGES
@<TRIPOS>ATOM
1     N1       4.0540  -36.9310   22.2210 N.ar    1  LIG  -0.6650  -0.6200 
2     C1       4.9660  -36.2380   22.9390 C.ar    1  LIG   0.3947   0.1600 
3     H1       6.0082  -36.2811   22.6707 H       1  LIG   0.0281   0.1500 
4     C2       4.6240  -35.4500   24.0360 C.ar    1  LIG  -0.2334  -0.1500 
5     H2       5.3884  -34.9151   24.5740 H       1  LIG   0.1480   0.1500 
6     C3       3.3050  -35.3690   24.4150 C.ar    1  LIG  -0.0698  -0.1435 
7     C4       2.3460  -36.0770   23.6860 C.ar    1  LIG  -0.0398   0.1170 
8     N2       0.9890  -36.0280   24.1030 N.am    1  LIG  -0.4596  -0.5470 
9     H3       0.7643  -35.9928   25.0860 H       1  LIG   0.3311   0.3700 
10    C5      -0.1450  -36.0180   23.4080 C.2     1  LIG   0.7361   0.5438 
11    C6      -0.1190  -36.0770   21.8860 C.ar    1  LIG  -0.2550   0.0862 
12    C7      -1.1230  -35.3990   21.1890 C.ar    1  LIG  -0.0321  -0.1500 
13    H4      -1.7552  -34.6955   21.7041 H       1  LIG   0.1623   0.1500 
14    C8      -1.2960  -35.6300   19.8690 C.ar    1  LIG  -0.2723  -0.1500 
15    H5      -2.0662  -35.1073   19.3273 H       1  LIG   0.1522   0.1500 
16    C9      -0.4670  -36.5450   19.2400 C.ar    1  LIG   0.4373   0.1600 
17    H6      -0.5947  -36.7554   18.1915 H       1  LIG   0.0280   0.1500 
18    N3       0.5220  -37.2120   19.8740 N.ar    1  LIG  -0.6893  -0.6200 
19    C10      0.7040  -36.9790   21.1800 C.ar    1  LIG   0.6480   0.4100 
20    N4       1.7670  -37.6730   21.8260 N.pl3   1  LIG  -0.6924  -0.3690 
21    C11      2.7540  -36.8570   22.5840 C.ar    1  LIG   0.5805   0.4100 
22    C12      2.9040  -34.5090   25.6010 C.3     1  LIG  -0.0620   0.1435 
23    H7       2.2235  -33.7630   25.2820 H       1  LIG   0.0570   0.0000 
24    H8       2.4436  -35.1154   26.3371 H       1  LIG   0.0495   0.0000 
25    H9       3.7654  -34.0491   26.0108 H       1  LIG   0.0519   0.0000 
26    O1      -1.2400  -35.9060   23.9770 O.2     1  LIG  -0.6361  -0.5700 
27    C13      2.3440  -38.7570   21.0360 C.3     1  LIG   0.1354   0.0690 
28    H10      3.1238  -38.3754   20.4296 H       1  LIG   0.0981   0.1000 
29    C14      2.9380  -39.8900   21.8010 C.3     1  LIG  -0.1181  -0.2000 
30    H11      3.8890  -40.1268   21.3997 H       1  LIG   0.0732   0.1000 
31    H12      3.0430  -39.6129   22.8177 H       1  LIG   0.0789   0.1000 
32    C15      1.6390  -40.0610   21.0880 C.3     1  LIG  -0.1196  -0.2000 
33    H13      0.6832  -39.9283   21.5242 H       1  LIG   0.0807   0.1000 
34    H14      1.5292  -40.4423   20.1061 H       1  LIG   0.0733   0.1000 
@<TRIPOS>BOND
1     2     1     ar
2     3     2     1
3     4     2     ar
4     5     4     1
5     6     4     ar
6     7     6     ar
7     8     7     1
8     9     8     1
9     10    8     1
10    11    10    1
11    12    11    ar
12    13    12    1
13    14    12    ar
14    15    14    1
15    16    14    ar
16    17    16    1
17    18    16    ar
18    19    11    ar
19    19    18    ar
20    20    19    1
21    21    1     ar
22    21    7     ar
23    21    20    1
24    22    6     1
25    23    22    1
26    24    22    1
27    25    22    1
28    26    10    2
29    27    20    1
30    28    27    1
31    29    27    1
32    30    29    1
33    31    29    1
34    32    27    1
35    32    29    1
36    33    32    1
37    34    32    1
@<TRIPOS>SUBSTRUCTURE
1   LIG    1    
 
########## Name        : 1VRT.lig
########## Description : AM1BCC_CHARGES =  -0.0002 ORIGINAL_CHARGES =  -0.0000

@<TRIPOS>MOLECULE
1VRT.lig
34    37    1     0     0    
SMALL
USER_CHARGES
@<TRIPOS>ATOM
1     N1       4.0540  -36.9310   22.2210 N.ar    1  LIG  -0.6650  -0.6200 
2     C1       4.9660  -36.2380   22.9390 C.ar    1  LIG   0.3947   0.1600 
3     H1       6.0082  -36.2811   22.6707 H       1  LIG   0.0281   0.1500 
4     C2       4.6240  -35.4500   24.0360 C.ar    1  LIG  -0.2334  -0.1500 
5     H2       5.3884  -34.9151   24.5740 H       1  LIG   0.1480   0.1500 
6     C3       3.3050  -35.3690   24.4150 C.ar    1  LIG  -0.0698  -0.1435 
7     C4       2.3460  -36.0770   23.6860 C.ar    1  LIG  -0.0398   0.1170 
8     N2       0.9890  -36.0280   24.1030 N.am    1  LIG  -0.4596  -0.5470 
9     H3       0.7643  -35.9928   25.0860 H       1  LIG   0.3311   0.3700 
10    C5      -0.1450  -36.0180   23.4080 C.2     1  LIG   0.7361   0.5438 
11    C6      -0.1190  -36.0770   21.8860 C.ar    1  LIG  -0.2550   0.0862 
12    C7      -1.1230  -35.3990   21.1890 C.ar    1  LIG  -0.0321  -0.1500 
13    H4      -1.7552  -34.6955   21.7041 H       1  LIG   0.1623   0.1500 
14    C8      -1.2960  -35.6300   19.8690 C.ar    1  LIG  -0.2723  -0.1500 
15    H5      -2.0662  -35.1073   19.3273 H       1  LIG   0.1522   0.1500 
16    C9      -0.4670  -36.5450   19.2400 C.ar    1  LIG   0.4373   0.1600 
17    H6      -0.5947  -36.7554   18.1915 H       1  LIG   0.0280   0.1500 
18    N3       0.5220  -37.2120   19.8740 N.ar    1  LIG  -0.6893  -0.6200 
19    C10      0.7040  -36.9790   21.1800 C.ar    1  LIG   0.6480   0.4100 
20    N4       1.7670  -37.6730   21.8260 N.pl3   1  LIG  -0.6924  -0.3690 
21    C11      2.7540  -36.8570   22.5840 C.ar    1  LIG   0.5805   0.4100 
22    C12      2.9040  -34.5090   25.6010 C.3     1  LIG  -0.0620   0.1435 
23    H7       2.2235  -33.7630   25.2820 H       1  LIG   0.0570   0.0000 
24    H8       2.4436  -35.1154   26.3371 H       1  LIG   0.0495   0.0000 
25    H9       3.7654  -34.0491   26.0108 H       1  LIG   0.0519   0.0000 
26    O1      -1.2400  -35.9060   23.9770 O.2     1  LIG  -0.6361  -0.5700 
27    C13      2.3440  -38.7570   21.0360 C.3     1  LIG   0.1354   0.0690 
28    H10      3.1238  -38.3754   20.4296 H       1  LIG   0.0981   0.1000 
29    C14      2.9380  -39.8900   21.8010 C.3     1  LIG  -0.1181  -0.2000 
30    H11      3.8890  -40.1268   21.3997 H       1  LIG   0.0732   0.1000 
31    H12      3.0430  -39.6129   22.8177 H       1  LIG   0.0789   0.1000 
32    C15      1.6390  -40.0610   21.0880 C.3     1  LIG  -0.1196  -0.2000 
33    H13      0.6832  -39.9283   21.5242 H       1  LIG   0.0807   0.1000 
34    H14      1.5292  -40.4423   20.1061 H       1  LIG   0.0733   0.1000 
@<TRIPOS>BOND
1     2     1     ar
2     3     2     1
3     4     2     ar
4     5     4     1
5     6     4     ar
6     7     6     ar
7     8     7     1
8     9     8     1
9     10    8     1
10    11    10    1
11    12    11    ar
12    13    12    1
13    14    12    ar
14    15    14    1
15    16    14    ar
16    17    16    1
17    18    16    ar
18    19    11    ar
19    19    18    ar
20    20    19    1
21    21    1     ar
22    21    7     ar
23    21    20    1
24    22    6     1
25    23    22    1
26    24    22    1
27    25    22    1
28    26    10    2
29    27    20    1
30    28    27    1
31    29    27    1
32    30    29    1
33    31    29    1
34    32    27    1
35    32    29    1
36    33    32    1
37    34    32    1
@<TRIPOS>SUBSTRUCTURE
1   LIG    1    
 
########## Name        : 1VRT.lig
########## Description : AM1BCC_CHARGES =  -0.0002 ORIGINAL_CHARGES =  -0.0000

@<TRIPOS>MOLECULE
1VRT.lig
34    37    1     0     0    
SMALL
USER_CHARGES
@<TRIPOS>ATOM
1     N1       4.0540  -36.9310   22.2210 N.ar    1  LIG  -0.6650  -0.6200 
2     C1       4.9660  -36.2380   22.9390 C.ar    1  LIG   0.3947   0.1600 
3     H1       6.0082  -36.2811   22.6707 H       1  LIG   0.0281   0.1500 
4     C2       4.6240  -35.4500   24.0360 C.ar    1  LIG  -0.2334  -0.1500 
5     H2       5.3884  -34.9151   24.5740 H       1  LIG   0.1480   0.1500 
6     C3       3.3050  -35.3690   24.4150 C.ar    1  LIG  -0.0698  -0.1435 
7     C4       2.3460  -36.0770   23.6860 C.ar    1  LIG  -0.0398   0.1170 
8     N2       0.9890  -36.0280   24.1030 N.am    1  LIG  -0.4596  -0.5470 
9     H3       0.7643  -35.9928   25.0860 H       1  LIG   0.3311   0.3700 
10    C5      -0.1450  -36.0180   23.4080 C.2     1  LIG   0.7361   0.5438 
11    C6      -0.1190  -36.0770   21.8860 C.ar    1  LIG  -0.2550   0.0862 
12    C7      -1.1230  -35.3990   21.1890 C.ar    1  LIG  -0.0321  -0.1500 
13    H4      -1.7552  -34.6955   21.7041 H       1  LIG   0.1623   0.1500 
14    C8      -1.2960  -35.6300   19.8690 C.ar    1  LIG  -0.2723  -0.1500 
15    H5      -2.0662  -35.1073   19.3273 H       1  LIG   0.1522   0.1500 
16    C9      -0.4670  -36.5450   19.2400 C.ar    1  LIG   0.4373   0.1600 
17    H6      -0.5947  -36.7554   18.1915 H       1  LIG   0.0280   0.1500 
18    N3       0.5220  -37.2120   19.8740 N.ar    1  LIG  -0.6893  -0.6200 
19    C10      0.7040  -36.9790   21.1800 C.ar    1  LIG   0.6480   0.4100 
20    N4       1.7670  -37.6730   21.8260 N.pl3   1  LIG  -0.6924  -0.3690 
21    C11      2.7540  -36.8570   22.5840 C.ar    1  LIG   0.5805   0.4100 
22    C12      2.9040  -34.5090   25.6010 C.3     1  LIG  -0.0620   0.1435 
23    H7       2.2235  -33.7630   25.2820 H       1  LIG   0.0570   0.0000 
24    H8       2.4436  -35.1154   26.3371 H       1  LIG   0.0495   0.0000 
25    H9       3.7654  -34.0491   26.0108 H       1  LIG   0.0519   0.0000 
26    O1      -1.2400  -35.9060   23.9770 O.2     1  LIG  -0.6361  -0.5700 
27    C13      2.3440  -38.7570   21.0360 C.3     1  LIG   0.1354   0.0690 
28    H10      3.1238  -38.3754   20.4296 H       1  LIG   0.0981   0.1000 
29    C14      2.9380  -39.8900   21.8010 C.3     1  LIG  -0.1181  -0.2000 
30    H11      3.8890  -40.1268   21.3997 H       1  LIG   0.0732   0.1000 
31    H12      3.0430  -39.6129   22.8177 H       1  LIG   0.0789   0.1000 
32    C15      1.6390  -40.0610   21.0880 C.3     1  LIG  -0.1196  -0.2000 
33    H13      0.6832  -39.9283   21.5242 H       1  LIG   0.0807   0.1000 
34    H14      1.5292  -40.4423   20.1061 H       1  LIG   0.0733   0.1000 
@<TRIPOS>BOND
1     2     1     ar
2     3     2     1
3     4     2     ar
4     5     4     1
5     6     4     ar
6     7     6     ar
7     8     7     1
8     9     8     1
9     10    8     1
10    11    10    1
11    12    11    ar
12    13    12    1
13    14    12    ar
14    15    14    1
15    16    14    ar
16    17    16    1
17    18    16    ar
18    19    11    ar
19    19    18    ar
20    20    19    1
21    21    1     ar
22    21    7     ar
23    21    20    1
24    22    6     1
25    23    22    1
26    24    22    1
27    25    22    1
28    26    10    2
29    27    20    1
30    28    27    1
31    29    27    1
32    30    29    1
33    31    29    1
34    32    27    1
35    32    29    1
36    33    32    1
37    34    32    1
@<TRIPOS>SUBSTRUCTURE
1   LIG    1    
 
########## Name        : 1VRT.lig
########## Description : AM1BCC_CHARGES =  -0.0002 ORIGINAL_CHARGES =  -0.0000

@<TRIPOS>MOLECULE
1VRT.lig
34    37    1     0     0    
SMALL
USER_CHARGES
@<TRIPOS>ATOM
1     N1       4.0540  -36.9310   22.2210 N.ar    1  LIG  -0.6650  -0.6200 
2     C1       4.9660  -36.2380   22.9390 C.ar    1  LIG   0.3947   0.1600 
3     H1       6.0082  -36.2811   22.6707 H       1  LIG   0.0281   0.1500 
4     C2       4.6240  -35.4500   24.0360 C.ar    1  LIG  -0.2334  -0.1500 
5     H2       5.3884  -34.9151   24.5740 H       1  LIG   0.1480   0.1500 
6     C3       3.3050  -35.3690   24.4150 C.ar    1  LIG  -0.0698  -0.1435 
7     C4       2.3460  -36.0770   23.6860 C.ar    1  LIG  -0.0398   0.1170 
8     N2       0.9890  -36.0280   24.1030 N.am    1  LIG  -0.4596  -0.5470 
9     H3       0.7643  -35.9928   25.0860 H       1  LIG   0.3311   0.3700 
10    C5      -0.1450  -36.0180   23.4080 C.2     1  LIG   0.7361   0.5438 
11    C6      -0.1190  -36.0770   21.8860 C.ar    1  LIG  -0.2550   0.0862 
12    C7      -1.1230  -35.3990   21.1890 C.ar    1  LIG  -0.0321  -0.1500 
13    H4      -1.7552  -34.6955   21.7041 H       1  LIG   0.1623   0.1500 
14    C8      -1.2960  -35.6300   19.8690 C.ar    1  LIG  -0.2723  -0.1500 
15    H5      -2.0662  -35.1073   19.3273 H       1  LIG   0.1522   0.1500 
16    C9      -0.4670  -36.5450   19.2400 C.ar    1  LIG   0.4373   0.1600 
17    H6      -0.5947  -36.7554   18.1915 H       1  LIG   0.0280   0.1500 
18    N3       0.5220  -37.2120   19.8740 N.ar    1  LIG  -0.6893  -0.6200 
19    C10      0.7040  -36.9790   21.1800 C.ar    1  LIG   0.6480   0.4100 
20    N4       1.7670  -37.6730   21.8260 N.pl3   1  LIG  -0.6924  -0.3690 
21    C11      2.7540  -36.8570   22.5840 C.ar    1  LIG   0.5805   0.4100 
22    C12      2.9040  -34.5090   25.6010 C.3     1  LIG  -0.0620   0.1435 
23    H7       2.2235  -33.7630   25.2820 H       1  LIG   0.0570   0.0000 
24    H8       2.4436  -35.1154   26.3371 H       1  LIG   0.0495   0.0000 
25    H9       3.7654  -34.0491   26.0108 H       1  LIG   0.0519   0.0000 
26    O1      -1.2400  -35.9060   23.9770 O.2     1  LIG  -0.6361  -0.5700 
27    C13      2.3440  -38.7570   21.0360 C.3     1  LIG   0.1354   0.0690 
28    H10      3.1238  -38.3754   20.4296 H       1  LIG   0.0981   0.1000 
29    C14      2.9380  -39.8900   21.8010 C.3     1  LIG  -0.1181  -0.2000 
30    H11      3.8890  -40.1268   21.3997 H       1  LIG   0.0732   0.1000 
31    H12      3.0430  -39.6129   22.8177 H       1  LIG   0.0789   0.1000 
32    C15      1.6390  -40.0610   21.0880 C.3     1  LIG  -0.1196  -0.2000 
33    H13      0.6832  -39.9283   21.5242 H       1  LIG   0.0807   0.1000 
34    H14      1.5292  -40.4423   20.1061 H       1  LIG   0.0733   0.1000 
@<TRIPOS>BOND
1     2     1     ar
2     3     2     1
3     4     2     ar
4     5     4     1
5     6     4     ar
6     7     6     ar
7     8     7     1
8     9     8     1
9     10    8     1
10    11    10    1
11    12    11    ar
12    13    12    1
13    14    12    ar
14    15    14    1
15    16    14    ar
16    17    16    1
17    18    16    ar
18    19    11    ar
19    19    18    ar
20    20    19    1
21    21    1     ar
22    21    7     ar
23    21    20    1
24    22    6     1
25    23    22    1
26    24    22    1
27    25    22    1
28    26    10    2
29    27    20    1
30    28    27    1
31    29    27    1
32    30    29    1
33    31    29    1
34    32    27    1
35    32    29    1
36    33    32    1
37    34    32    1
@<TRIPOS>SUBSTRUCTURE
1   LIG    1    
 
########## Name        : 1VRT.lig
########## Description : AM1BCC_CHARGES =  -0.0002 ORIGINAL_CHARGES =  -0.0000

@<TRIPOS>MOLECULE
1VRT.lig
34    37    1     0     0    
SMALL
USER_CHARGES
@<TRIPOS>ATOM
1     N1       4.0540  -36.9310   22.2210 N.ar    1  LIG  -0.6650  -0.6200 
2     C1       4.9660  -36.2380   22.9390 C.ar    1  LIG   0.3947   0.1600 
3     H1       6.0082  -36.2811   22.6707 H       1  LIG   0.0281   0.1500 
4     C2       4.6240  -35.4500   24.0360 C.ar    1  LIG  -0.2334  -0.1500 
5     H2       5.3884  -34.9151   24.5740 H       1  LIG   0.1480   0.1500 
6     C3       3.3050  -35.3690   24.4150 C.ar    1  LIG  -0.0698  -0.1435 
7     C4       2.3460  -36.0770   23.6860 C.ar    1  LIG  -0.0398   0.1170 
8     N2       0.9890  -36.0280   24.1030 N.am    1  LIG  -0.4596  -0.5470 
9     H3       0.7643  -35.9928   25.0860 H       1  LIG   0.3311   0.3700 
10    C5      -0.1450  -36.0180   23.4080 C.2     1  LIG   0.7361   0.5438 
11    C6      -0.1190  -36.0770   21.8860 C.ar    1  LIG  -0.2550   0.0862 
12    C7      -1.1230  -35.3990   21.1890 C.ar    1  LIG  -0.0321  -0.1500 
13    H4      -1.7552  -34.6955   21.7041 H       1  LIG   0.1623   0.1500 
14    C8      -1.2960  -35.6300   19.8690 C.ar    1  LIG  -0.2723  -0.1500 
15    H5      -2.0662  -35.1073   19.3273 H       1  LIG   0.1522   0.1500 
16    C9      -0.4670  -36.5450   19.2400 C.ar    1  LIG   0.4373   0.1600 
17    H6      -0.5947  -36.7554   18.1915 H       1  LIG   0.0280   0.1500 
18    N3       0.5220  -37.2120   19.8740 N.ar    1  LIG  -0.6893  -0.6200 
19    C10      0.7040  -36.9790   21.1800 C.ar    1  LIG   0.6480   0.4100 
20    N4       1.7670  -37.6730   21.8260 N.pl3   1  LIG  -0.6924  -0.3690 
21    C11      2.7540  -36.8570   22.5840 C.ar    1  LIG   0.5805   0.4100 
22    C12      2.9040  -34.5090   25.6010 C.3     1  LIG  -0.0620   0.1435 
23    H7       2.2235  -33.7630   25.2820 H       1  LIG   0.0570   0.0000 
24    H8       2.4436  -35.1154   26.3371 H       1  LIG   0.0495   0.0000 
25    H9       3.7654  -34.0491   26.0108 H       1  LIG   0.0519   0.0000 
26    O1      -1.2400  -35.9060   23.9770 O.2     1  LIG  -0.6361  -0.5700 
27    C13      2.3440  -38.7570   21.0360 C.3     1  LIG   0.1354   0.0690 
28    H10      3.1238  -38.3754   20.4296 H       1  LIG   0.0981   0.1000 
29    C14      2.9380  -39.8900   21.8010 C.3     1  LIG  -0.1181  -0.2000 
30    H11      3.8890  -40.1268   21.3997 H       1  LIG   0.0732   0.1000 
31    H12      3.0430  -39.6129   22.8177 H       1  LIG   0.0789   0.1000 
32    C15      1.6390  -40.0610   21.0880 C.3     1  LIG  -0.1196  -0.2000 
33    H13      0.6832  -39.9283   21.5242 H       1  LIG   0.0807   0.1000 
34    H14      1.5292  -40.4423   20.1061 H       1  LIG   0.0733   0.1000 
@<TRIPOS>BOND
1     2     1     ar
2     3     2     1
3     4     2     ar
4     5     4     1
5     6     4     ar
6     7     6     ar
7     8     7     1
8     9     8     1
9     10    8     1
10    11    10    1
11    12    11    ar
12    13    12    1
13    14    12    ar
14    15    14    1
15    16    14    ar
16    17    16    1
17    18    16    ar
18    19    11    ar
19    19    18    ar
20    20    19    1
21    21    1     ar
22    21    7     ar
23    21    20    1
24    22    6     1
25    23    22    1
26    24    22    1
27    25    22    1
28    26    10    2
29    27    20    1
30    28    27    1
31    29    27    1
32    30    29    1
33    31    29    1
34    32    27    1
35    32    29    1
36    33    32    1
37    34    32    1
@<TRIPOS>SUBSTRUCTURE
1   LIG    1    
 
########## Name        : 1VRT.lig
########## Description : AM1BCC_CHARGES =  -0.0002 ORIGINAL_CHARGES =  -0.0000

@<TRIPOS>MOLECULE
1VRT.lig
34    37    1     0     0    
SMALL
USER_CHARGES
@<TRIPOS>ATOM
1     N1       4.0540  -36.9310   22.2210 N.ar    1  LIG  -0.6650  -0.6200 
2     C1       4.9660  -36.2380   22.9390 C.ar    1  LIG   0.3947   0.1600 
3     H1       6.0082  -36.2811   22.6707 H       1  LIG   0.0281   0.1500 
4     C2       4.6240  -35.4500   24.0360 C.ar    1  LIG  -0.2334  -0.1500 
5     H2       5.3884  -34.9151   24.5740 H       1  LIG   0.1480   0.1500 
6     C3       3.3050  -35.3690   24.4150 C.ar    1  LIG  -0.0698  -0.1435 
7     C4       2.3460  -36.0770   23.6860 C.ar    1  LIG  -0.0398   0.1170 
8     N2       0.9890  -36.0280   24.1030 N.am    1  LIG  -0.4596  -0.5470 
9     H3       0.7643  -35.9928   25.0860 H       1  LIG   0.3311   0.3700 
10    C5      -0.1450  -36.0180   23.4080 C.2     1  LIG   0.7361   0.5438 
11    C6      -0.1190  -36.0770   21.8860 C.ar    1  LIG  -0.2550   0.0862 
12    C7      -1.1230  -35.3990   21.1890 C.ar    1  LIG  -0.0321  -0.1500 
13    H4      -1.7552  -34.6955   21.7041 H       1  LIG   0.1623   0.1500 
14    C8      -1.2960  -35.6300   19.8690 C.ar    1  LIG  -0.2723  -0.1500 
15    H5      -2.0662  -35.1073   19.3273 H       1  LIG   0.1522   0.1500 
16    C9      -0.4670  -36.5450   19.2400 C.ar    1  LIG   0.4373   0.1600 
17    H6      -0.5947  -36.7554   18.1915 H       1  LIG   0.0280   0.1500 
18    N3       0.5220  -37.2120   19.8740 N.ar    1  LIG  -0.6893  -0.6200 
19    C10      0.7040  -36.9790   21.1800 C.ar    1  LIG   0.6480   0.4100 
20    N4       1.7670  -37.6730   21.8260 N.pl3   1  LIG  -0.6924  -0.3690 
21    C11      2.7540  -36.8570   22.5840 C.ar    1  LIG   0.5805   0.4100 
22    C12      2.9040  -34.5090   25.6010 C.3     1  LIG  -0.0620   0.1435 
23    H7       2.2235  -33.7630   25.2820 H       1  LIG   0.0570   0.0000 
24    H8       2.4436  -35.1154   26.3371 H       1  LIG   0.0495   0.0000 
25    H9       3.7654  -34.0491   26.0108 H       1  LIG   0.0519   0.0000 
26    O1      -1.2400  -35.9060   23.9770 O.2     1  LIG  -0.6361  -0.5700 
27    C13      2.3440  -38.7570   21.0360 C.3     1  LIG   0.1354   0.0690 
28    H10      3.1238  -38.3754   20.4296 H       1  LIG   0.0981   0.1000 
29    C14      2.9380  -39.8900   21.8010 C.3     1  LIG  -0.1181  -0.2000 
30    H11      3.8890  -40.1268   21.3997 H       1  LIG   0.0732   0.1000 
31    H12      3.0430  -39.6129   22.8177 H       1  LIG   0.0789   0.1000 
32    C15      1.6390  -40.0610   21.0880 C.3     1  LIG  -0.1196  -0.2000 
33    H13      0.6832  -39.9283   21.5242 H       1  LIG   0.0807   0.1000 
34    H14      1.5292  -40.4423   20.1061 H       1  LIG   0.0733   0.1000 
@<TRIPOS>BOND
1     2     1     ar
2     3     2     1
3     4     2     ar
4     5     4     1
5     6     4     ar
6     7     6     ar
7     8     7     1
8     9     8     1
9     10    8     1
10    11    10    1
11    12    11    ar
12    13    12    1
13    14    12    ar
14    15    14    1
15    16    14    ar
16    17    16    1
17    18    16    ar
18    19    11    ar
19    19    18    ar
20    20    19    1
21    21    1     ar
22    21    7     ar
23    21    20    1
24    22    6     1
25    23    22    1
26    24    22    1
27    25    22    1
28    26    10    2
29    27    20    1
30    28    27    1
31    29    27    1
32    30    29    1
33    31    29    1
34    32    27    1
35    32    29    1
36    33    32    1
37    34    32    1
@<TRIPOS>SUBSTRUCTURE
1   LIG    1    
 
########## Name        : 1VRT.lig
########## Description : AM1BCC_CHARGES =  -0.0002 ORIGINAL_CHARGES =  -0.0000

@<TRIPOS>MOLECULE
1VRT.lig
34    37    1     0     0    
SMALL
USER_CHARGES
@<TRIPOS>ATOM
1     N1       4.0540  -36.9310   22.2210 N.ar    1  LIG  -0.6650  -0.6200 
2     C1       4.9660  -36.2380   22.9390 C.ar    1  LIG   0.3947   0.1600 
3     H1       6.0082  -36.2811   22.6707 H       1  LIG   0.0281   0.1500 
4     C2       4.6240  -35.4500   24.0360 C.ar    1  LIG  -0.2334  -0.1500 
5     H2       5.3884  -34.9151   24.5740 H       1  LIG   0.1480   0.1500 
6     C3       3.3050  -35.3690   24.4150 C.ar    1  LIG  -0.0698  -0.1435 
7     C4       2.3460  -36.0770   23.6860 C.ar    1  LIG  -0.0398   0.1170 
8     N2       0.9890  -36.0280   24.1030 N.am    1  LIG  -0.4596  -0.5470 
9     H3       0.7643  -35.9928   25.0860 H       1  LIG   0.3311   0.3700 
10    C5      -0.1450  -36.0180   23.4080 C.2     1  LIG   0.7361   0.5438 
11    C6      -0.1190  -36.0770   21.8860 C.ar    1  LIG  -0.2550   0.0862 
12    C7      -1.1230  -35.3990   21.1890 C.ar    1  LIG  -0.0321  -0.1500 
13    H4      -1.7552  -34.6955   21.7041 H       1  LIG   0.1623   0.1500 
14    C8      -1.2960  -35.6300   19.8690 C.ar    1  LIG  -0.2723  -0.1500 
15    H5      -2.0662  -35.1073   19.3273 H       1  LIG   0.1522   0.1500 
16    C9      -0.4670  -36.5450   19.2400 C.ar    1  LIG   0.4373   0.1600 
17    H6      -0.5947  -36.7554   18.1915 H       1  LIG   0.0280   0.1500 
18    N3       0.5220  -37.2120   19.8740 N.ar    1  LIG  -0.6893  -0.6200 
19    C10      0.7040  -36.9790   21.1800 C.ar    1  LIG   0.6480   0.4100 
20    N4       1.7670  -37.6730   21.8260 N.pl3   1  LIG  -0.6924  -0.3690 
21    C11      2.7540  -36.8570   22.5840 C.ar    1  LIG   0.5805   0.4100 
22    C12      2.9040  -34.5090   25.6010 C.3     1  LIG  -0.0620   0.1435 
23    H7       2.2235  -33.7630   25.2820 H       1  LIG   0.0570   0.0000 
24    H8       2.4436  -35.1154   26.3371 H       1  LIG   0.0495   0.0000 
25    H9       3.7654  -34.0491   26.0108 H       1  LIG   0.0519   0.0000 
26    O1      -1.2400  -35.9060   23.9770 O.2     1  LIG  -0.6361  -0.5700 
27    C13      2.3440  -38.7570   21.0360 C.3     1  LIG   0.1354   0.0690 
28    H10      3.1238  -38.3754   20.4296 H       1  LIG   0.0981   0.1000 
29    C14      2.9380  -39.8900   21.8010 C.3     1  LIG  -0.1181  -0.2000 
30    H11      3.8890  -40.1268   21.3997 H       1  LIG   0.0732   0.1000 
31    H12      3.0430  -39.6129   22.8177 H       1  LIG   0.0789   0.1000 
32    C15      1.6390  -40.0610   21.0880 C.3     1  LIG  -0.1196  -0.2000 
33    H13      0.6832  -39.9283   21.5242 H       1  LIG   0.0807   0.1000 
34    H14      1.5292  -40.4423   20.1061 H       1  LIG   0.0733   0.1000 
@<TRIPOS>BOND
1     2     1     ar
2     3     2     1
3     4     2     ar
4     5     4     1
5     6     4     ar
6     7     6     ar
7     8     7     1
8     9     8     1
9     10    8     1
10    11    10    1
11    12    11    ar
12    13    12    1
13    14    12    ar
14    15    14    1
15    16    14    ar
16    17    16    1
17    18    16    ar
18    19    11    ar
19    19    18    ar
20    20    19    1
21    21    1     ar
22    21    7     ar
23    21    20    1
24    22    6     1
25    23    22    1
26    24    22    1
27    25    22    1
28    26    10    2
29    27    20    1
30    28    27    1
31    29    27    1
32    30    29    1
33    31    29    1
34    32    27    1
35    32    29    1
36    33    32    1
37    34    32    1
@<TRIPOS>SUBSTRUCTURE
1   LIG    1    
 
########## Name        : 1VRT.lig
########## Description : AM1BCC_CHARGES =  -0.0002 ORIGINAL_CHARGES =  -0.0000

@<TRIPOS>MOLECULE
1VRT.lig
34    37    1     0     0    
SMALL
USER_CHARGES
@<TRIPOS>ATOM
1     N1       4.0540  -36.9310   22.2210 N.ar    1  LIG  -0.6650  -0.6200 
2     C1       4.9660  -36.2380   22.9390 C.ar    1  LIG   0.3947   0.1600 
3     H1       6.0082  -36.2811   22.6707 H       1  LIG   0.0281   0.1500 
4     C2       4.6240  -35.4500   24.0360 C.ar    1  LIG  -0.2334  -0.1500 
5     H2       5.3884  -34.9151   24.5740 H       1  LIG   0.1480   0.1500 
6     C3       3.3050  -35.3690   24.4150 C.ar    1  LIG  -0.0698  -0.1435 
7     C4       2.3460  -36.0770   23.6860 C.ar    1  LIG  -0.0398   0.1170 
8     N2       0.9890  -36.0280   24.1030 N.am    1  LIG  -0.4596  -0.5470 
9     H3       0.7643  -35.9928   25.0860 H       1  LIG   0.3311   0.3700 
10    C5      -0.1450  -36.0180   23.4080 C.2     1  LIG   0.7361   0.5438 
11    C6      -0.1190  -36.0770   21.8860 C.ar    1  LIG  -0.2550   0.0862 
12    C7      -1.1230  -35.3990   21.1890 C.ar    1  LIG  -0.0321  -0.1500 
13    H4      -1.7552  -34.6955   21.7041 H       1  LIG   0.1623   0.1500 
14    C8      -1.2960  -35.6300   19.8690 C.ar    1  LIG  -0.2723  -0.1500 
15    H5      -2.0662  -35.1073   19.3273 H       1  LIG   0.1522   0.1500 
16    C9      -0.4670  -36.5450   19.2400 C.ar    1  LIG   0.4373   0.1600 
17    H6      -0.5947  -36.7554   18.1915 H       1  LIG   0.0280   0.1500 
18    N3       0.5220  -37.2120   19.8740 N.ar    1  LIG  -0.6893  -0.6200 
19    C10      0.7040  -36.9790   21.1800 C.ar    1  LIG   0.6480   0.4100 
20    N4       1.7670  -37.6730   21.8260 N.pl3   1  LIG  -0.6924  -0.3690 
21    C11      2.7540  -36.8570   22.5840 C.ar    1  LIG   0.5805   0.4100 
22    C12      2.9040  -34.5090   25.6010 C.3     1  LIG  -0.0620   0.1435 
23    H7       2.2235  -33.7630   25.2820 H       1  LIG   0.0570   0.0000 
24    H8       2.4436  -35.1154   26.3371 H       1  LIG   0.0495   0.0000 
25    H9       3.7654  -34.0491   26.0108 H       1  LIG   0.0519   0.0000 
26    O1      -1.2400  -35.9060   23.9770 O.2     1  LIG  -0.6361  -0.5700 
27    C13      2.3440  -38.7570   21.0360 C.3     1  LIG   0.1354   0.0690 
28    H10      3.1238  -38.3754   20.4296 H       1  LIG   0.0981   0.1000 
29    C14      2.9380  -39.8900   21.8010 C.3     1  LIG  -0.1181  -0.2000 
30    H11      3.8890  -40.1268   21.3997 H       1  LIG   0.0732   0.1000 
31    H12      3.0430  -39.6129   22.8177 H       1  LIG   0.0789   0.1000 
32    C15      1.6390  -40.0610   21.0880 C.3     1  LIG  -0.1196  -0.2000 
33    H13      0.6832  -39.9283   21.5242 H       1  LIG   0.0807   0.1000 
34    H14      1.5292  -40.4423   20.1061 H       1  LIG   0.0733   0.1000 
@<TRIPOS>BOND
1     2     1     ar
2     3     2     1
3     4     2     ar
4     5     4     1
5     6     4     ar
6     7     6     ar
7     8     7     1
8     9     8     1
9     10    8     1
10    11    10    1
11    12    11    ar
12    13    12    1
13    14    12    ar
14    15    14    1
15    16    14    ar
16    17    16    1
17    18    16    ar
18    19    11    ar
19    19    18    ar
20    20    19    1
21    21    1     ar
22    21    7     ar
23    21    20    1
24    22    6     1
25    23    22    1
26    24    22    1
27    25    22    1
28    26    10    2
29    27    20    1
30    28    27    1
31    29    27    1
32    30    29    1
33    31    29    1
34    32    27    1
35    32    29    1
36    33    32    1
37    34    32    1
@<TRIPOS>SUBSTRUCTURE
1   LIG    1    
 
########## Name        : 1VRT.lig
########## Description : AM1BCC_CHARGES =  -0.0002 ORIGINAL_CHARGES =  -0.0000

@<TRIPOS>MOLECULE
1VRT.lig
34    37    1     0     0    
SMALL
USER_CHARGES
@<TRIPOS>ATOM
1     N1       4.0540  -36.9310   22.2210 N.ar    1  LIG  -0.6650  -0.6200 
2     C1       4.9660  -36.2380   22.9390 C.ar    1  LIG   0.3947   0.1600 
3     H1       6.0082  -36.2811   22.6707 H       1  LIG   0.0281   0.1500 
4     C2       4.6240  -35.4500   24.0360 C.ar    1  LIG  -0.2334  -0.1500 
5     H2       5.3884  -34.9151   24.5740 H       1  LIG   0.1480   0.1500 
6     C3       3.3050  -35.3690   24.4150 C.ar    1  LIG  -0.0698  -0.1435 
7     C4       2.3460  -36.0770   23.6860 C.ar    1  LIG  -0.0398   0.1170 
8     N2       0.9890  -36.0280   24.1030 N.am    1  LIG  -0.4596  -0.5470 
9     H3       0.7643  -35.9928   25.0860 H       1  LIG   0.3311   0.3700 
10    C5      -0.1450  -36.0180   23.4080 C.2     1  LIG   0.7361   0.5438 
11    C6      -0.1190  -36.0770   21.8860 C.ar    1  LIG  -0.2550   0.0862 
12    C7      -1.1230  -35.3990   21.1890 C.ar    1  LIG  -0.0321  -0.1500 
13    H4      -1.7552  -34.6955   21.7041 H       1  LIG   0.1623   0.1500 
14    C8      -1.2960  -35.6300   19.8690 C.ar    1  LIG  -0.2723  -0.1500 
15    H5      -2.0662  -35.1073   19.3273 H       1  LIG   0.1522   0.1500 
16    C9      -0.4670  -36.5450   19.2400 C.ar    1  LIG   0.4373   0.1600 
17    H6      -0.5947  -36.7554   18.1915 H       1  LIG   0.0280   0.1500 
18    N3       0.5220  -37.2120   19.8740 N.ar    1  LIG  -0.6893  -0.6200 
19    C10      0.7040  -36.9790   21.1800 C.ar    1  LIG   0.6480   0.4100 
20    N4       1.7670  -37.6730   21.8260 N.pl3   1  LIG  -0.6924  -0.3690 
21    C11      2.7540  -36.8570   22.5840 C.ar    1  LIG   0.5805   0.4100 
22    C12      2.9040  -34.5090   25.6010 C.3     1  LIG  -0.0620   0.1435 
23    H7       2.2235  -33.7630   25.2820 H       1  LIG   0.0570   0.0000 
24    H8       2.4436  -35.1154   26.3371 H       1  LIG   0.0495   0.0000 
25    H9       3.7654  -34.0491   26.0108 H       1  LIG   0.0519   0.0000 
26    O1      -1.2400  -35.9060   23.9770 O.2     1  LIG  -0.6361  -0.5700 
27    C13      2.3440  -38.7570   21.0360 C.3     1  LIG   0.1354   0.0690 
28    H10      3.1238  -38.3754   20.4296 H       1  LIG   0.0981   0.1000 
29    C14      2.9380  -39.8900   21.8010 C.3     1  LIG  -0.1181  -0.2000 
30    H11      3.8890  -40.1268   21.3997 H       1  LIG   0.0732   0.1000 
31    H12      3.0430  -39.6129   22.8177 H       1  LIG   0.0789   0.1000 
32    C15      1.6390  -40.0610   21.0880 C.3     1  LIG  -0.1196  -0.2000 
33    H13      0.6832  -39.9283   21.5242 H       1  LIG   0.0807   0.1000 
34    H14      1.5292  -40.4423   20.1061 H       1  LIG   0.0733   0.1000 
@<TRIPOS>BOND
1     2     1     ar
2     3     2     1
3     4     2     ar
4     5     4     1
5     6     4     ar
6     7     6     ar
7     8     7     1
8     9     8     1
9     10    8     1
10    11    10    1
11    12    11    ar
12    13    12    1
13    14    12    ar
14    15    14    1
15    16    14    ar
16    17    16    1
17    18    16    ar
18    19    11    ar
19    19    18    ar
20    20    19    1
21    21    1     ar
22    21    7     ar
23    21    20    1
24    22    6     1
25    23    22    1
26    24    22    1
27    25    22    1
28    26    10    2
29    27    20    1
30    28    27    1
31    29    27    1
32    30    29    1
33    31    29    1
34    32    27    1
35    32    29    1
36    33    32    1
37    34    32    1
@<TRIPOS>SUBSTRUCTURE
1   LIG    1    
 
########## Name        : 1VRT.lig
########## Description : AM1BCC_CHARGES =  -0.0002 ORIGINAL_CHARGES =  -0.0000

@<TRIPOS>MOLECULE
1VRT.lig
34    37    1     0     0    
SMALL
USER_CHARGES
@<TRIPOS>ATOM
1     N1       4.0540  -36.9310   22.2210 N.ar    1  LIG  -0.6650  -0.6200 
2     C1       4.9660  -36.2380   22.9390 C.ar    1  LIG   0.3947   0.1600 
3     H1       6.0082  -36.2811   22.6707 H       1  LIG   0.0281   0.1500 
4     C2       4.6240  -35.4500   24.0360 C.ar    1  LIG  -0.2334  -0.1500 
5     H2       5.3884  -34.9151   24.5740 H       1  LIG   0.1480   0.1500 
6     C3       3.3050  -35.3690   24.4150 C.ar    1  LIG  -0.0698  -0.1435 
7     C4       2.3460  -36.0770   23.6860 C.ar    1  LIG  -0.0398   0.1170 
8     N2       0.9890  -36.0280   24.1030 N.am    1  LIG  -0.4596  -0.5470 
9     H3       0.7643  -35.9928   25.0860 H       1  LIG   0.3311   0.3700 
10    C5      -0.1450  -36.0180   23.4080 C.2     1  LIG   0.7361   0.5438 
11    C6      -0.1190  -36.0770   21.8860 C.ar    1  LIG  -0.2550   0.0862 
12    C7      -1.1230  -35.3990   21.1890 C.ar    1  LIG  -0.0321  -0.1500 
13    H4      -1.7552  -34.6955   21.7041 H       1  LIG   0.1623   0.1500 
14    C8      -1.2960  -35.6300   19.8690 C.ar    1  LIG  -0.2723  -0.1500 
15    H5      -2.0662  -35.1073   19.3273 H       1  LIG   0.1522   0.1500 
16    C9      -0.4670  -36.5450   19.2400 C.ar    1  LIG   0.4373   0.1600 
17    H6      -0.5947  -36.7554   18.1915 H       1  LIG   0.0280   0.1500 
18    N3       0.5220  -37.2120   19.8740 N.ar    1  LIG  -0.6893  -0.6200 
19    C10      0.7040  -36.9790   21.1800 C.ar    1  LIG   0.6480   0.4100 
20    N4       1.7670  -37.6730   21.8260 N.pl3   1  LIG  -0.6924  -0.3690 
21    C11      2.7540  -36.8570   22.5840 C.ar    1  LIG   0.5805   0.4100 
22    C12      2.9040  -34.5090   25.6010 C.3     1  LIG  -0.0620   0.1435 
23    H7       2.2235  -33.7630   25.2820 H       1  LIG   0.0570   0.0000 
24    H8       2.4436  -35.1154   26.3371 H       1  LIG   0.0495   0.0000 
25    H9       3.7654  -34.0491   26.0108 H       1  LIG   0.0519   0.0000 
26    O1      -1.2400  -35.9060   23.9770 O.2     1  LIG  -0.6361  -0.5700 
27    C13      2.3440  -38.7570   21.0360 C.3     1  LIG   0.1354   0.0690 
28    H10      3.1238  -38.3754   20.4296 H       1  LIG   0.0981   0.1000 
29    C14      2.9380  -39.8900   21.8010 C.3     1  LIG  -0.1181  -0.2000 
30    H11      3.8890  -40.1268   21.3997 H       1  LIG   0.0732   0.1000 
31    H12      3.0430  -39.6129   22.8177 H       1  LIG   0.0789   0.1000 
32    C15      1.6390  -40.0610   21.0880 C.3     1  LIG  -0.1196  -0.2000 
33    H13      0.6832  -39.9283   21.5242 H       1  LIG   0.0807   0.1000 
34    H14      1.5292  -40.4423   20.1061 H       1  LIG   0.0733   0.1000 
@<TRIPOS>BOND
1     2     1     ar
2     3     2     1
3     4     2     ar
4     5     4     1
5     6     4     ar
6     7     6     ar
7     8     7     1
8     9     8     1
9     10    8     1
10    11    10    1
11    12    11    ar
12    13    12    1
13    14    12    ar
14    15    14    1
15    16    14    ar
16    17    16    1
17    18    16    ar
18    19    11    ar
19    19    18    ar
20    20    19    1
21    21    1     ar
22    21    7     ar
23    21    20    1
24    22    6     1
25    23    22    1
26    24    22    1
27    25    22    1
28    26    10    2
29    27    20    1
30    28    27    1
31    29    27    1
32    30    29    1
33    31    29    1
34    32    27    1
35    32    29    1
36    33    32    1
37    34    32    1
@<TRIPOS>SUBSTRUCTURE
1   LIG    1    
 
########## Name        : 1VRT.lig
########## Description : AM1BCC_CHARGES =  -0.0002 ORIGINAL_CHARGES =  -0.0000

@<TRIPOS>MOLECULE
1VRT.lig
34    37    1     0     0    
SMALL
USER_CHARGES
@<TRIPOS>ATOM
1     N1       4.0540  -36.9310   22.2210 N.ar    1  LIG  -0.6650  -0.6200 
2     C1       4.9660  -36.2380   22.9390 C.ar    1  LIG   0.3947   0.1600 
3     H1       6.0082  -36.2811   22.6707 H       1  LIG   0.0281   0.1500 
4     C2       4.6240  -35.4500   24.0360 C.ar    1  LIG  -0.2334  -0.1500 
5     H2       5.3884  -34.9151   24.5740 H       1  LIG   0.1480   0.1500 
6     C3       3.3050  -35.3690   24.4150 C.ar    1  LIG  -0.0698  -0.1435 
7     C4       2.3460  -36.0770   23.6860 C.ar    1  LIG  -0.0398   0.1170 
8     N2       0.9890  -36.0280   24.1030 N.am    1  LIG  -0.4596  -0.5470 
9     H3       0.7643  -35.9928   25.0860 H       1  LIG   0.3311   0.3700 
10    C5      -0.1450  -36.0180   23.4080 C.2     1  LIG   0.7361   0.5438 
11    C6      -0.1190  -36.0770   21.8860 C.ar    1  LIG  -0.2550   0.0862 
12    C7      -1.1230  -35.3990   21.1890 C.ar    1  LIG  -0.0321  -0.1500 
13    H4      -1.7552  -34.6955   21.7041 H       1  LIG   0.1623   0.1500 
14    C8      -1.2960  -35.6300   19.8690 C.ar    1  LIG  -0.2723  -0.1500 
15    H5      -2.0662  -35.1073   19.3273 H       1  LIG   0.1522   0.1500 
16    C9      -0.4670  -36.5450   19.2400 C.ar    1  LIG   0.4373   0.1600 
17    H6      -0.5947  -36.7554   18.1915 H       1  LIG   0.0280   0.1500 
18    N3       0.5220  -37.2120   19.8740 N.ar    1  LIG  -0.6893  -0.6200 
19    C10      0.7040  -36.9790   21.1800 C.ar    1  LIG   0.6480   0.4100 
20    N4       1.7670  -37.6730   21.8260 N.pl3   1  LIG  -0.6924  -0.3690 
21    C11      2.7540  -36.8570   22.5840 C.ar    1  LIG   0.5805   0.4100 
22    C12      2.9040  -34.5090   25.6010 C.3     1  LIG  -0.0620   0.1435 
23    H7       2.2235  -33.7630   25.2820 H       1  LIG   0.0570   0.0000 
24    H8       2.4436  -35.1154   26.3371 H       1  LIG   0.0495   0.0000 
25    H9       3.7654  -34.0491   26.0108 H       1  LIG   0.0519   0.0000 
26    O1      -1.2400  -35.9060   23.9770 O.2     1  LIG  -0.6361  -0.5700 
27    C13      2.3440  -38.7570   21.0360 C.3     1  LIG   0.1354   0.0690 
28    H10      3.1238  -38.3754   20.4296 H       1  LIG   0.0981   0.1000 
29    C14      2.9380  -39.8900   21.8010 C.3     1  LIG  -0.1181  -0.2000 
30    H11      3.8890  -40.1268   21.3997 H       1  LIG   0.0732   0.1000 
31    H12      3.0430  -39.6129   22.8177 H       1  LIG   0.0789   0.1000 
32    C15      1.6390  -40.0610   21.0880 C.3     1  LIG  -0.1196  -0.2000 
33    H13      0.6832  -39.9283   21.5242 H       1  LIG   0.0807   0.1000 
34    H14      1.5292  -40.4423   20.1061 H       1  LIG   0.0733   0.1000 
@<TRIPOS>BOND
1     2     1     ar
2     3     2     1
3     4     2     ar
4     5     4     1
5     6     4     ar
6     7     6     ar
7     8     7     1
8     9     8     1
9     10    8     1
10    11    10    1
11    12    11    ar
12    13    12    1
13    14    12    ar
14    15    14    1
15    16    14    ar
16    17    16    1
17    18    16    ar
18    19    11    ar
19    19    18    ar
20    20    19    1
21    21    1     ar
22    21    7     ar
23    21    20    1
24    22    6     1
25    23    22    1
26    24    22    1
27    25    22    1
28    26    10    2
29    27    20    1
30    28    27    1
31    29    27    1
32    30    29    1
33    31    29    1
34    32    27    1
35    32    29    1
36    33    32    1
37    34    32    1
@<TRIPOS>SUBSTRUCTURE
1   LIG    1    
 
########## Name        : 1VRT.lig
########## Description : AM1BCC_CHARGES =  -0.0002 ORIGINAL_CHARGES =  -0.0000

@<TRIPOS>MOLECULE
1VRT.lig
34    37    1     0     0    
SMALL
USER_CHARGES
@<TRIPOS>ATOM
1     N1       4.0540  -36.9310   22.2210 N.ar    1  LIG  -0.6650  -0.6200 
2     C1       4.9660  -36.2380   22.9390 C.ar    1  LIG   0.3947   0.1600 
3     H1       6.0082  -36.2811   22.6707 H       1  LIG   0.0281   0.1500 
4     C2       4.6240  -35.4500   24.0360 C.ar    1  LIG  -0.2334  -0.1500 
5     H2       5.3884  -34.9151   24.5740 H       1  LIG   0.1480   0.1500 
6     C3       3.3050  -35.3690   24.4150 C.ar    1  LIG  -0.0698  -0.1435 
7     C4       2.3460  -36.0770   23.6860 C.ar    1  LIG  -0.0398   0.1170 
8     N2       0.9890  -36.0280   24.1030 N.am    1  LIG  -0.4596  -0.5470 
9     H3       0.7643  -35.9928   25.0860 H       1  LIG   0.3311   0.3700 
10    C5      -0.1450  -36.0180   23.4080 C.2     1  LIG   0.7361   0.5438 
11    C6      -0.1190  -36.0770   21.8860 C.ar    1  LIG  -0.2550   0.0862 
12    C7      -1.1230  -35.3990   21.1890 C.ar    1  LIG  -0.0321  -0.1500 
13    H4      -1.7552  -34.6955   21.7041 H       1  LIG   0.1623   0.1500 
14    C8      -1.2960  -35.6300   19.8690 C.ar    1  LIG  -0.2723  -0.1500 
15    H5      -2.0662  -35.1073   19.3273 H       1  LIG   0.1522   0.1500 
16    C9      -0.4670  -36.5450   19.2400 C.ar    1  LIG   0.4373   0.1600 
17    H6      -0.5947  -36.7554   18.1915 H       1  LIG   0.0280   0.1500 
18    N3       0.5220  -37.2120   19.8740 N.ar    1  LIG  -0.6893  -0.6200 
19    C10      0.7040  -36.9790   21.1800 C.ar    1  LIG   0.6480   0.4100 
20    N4       1.7670  -37.6730   21.8260 N.pl3   1  LIG  -0.6924  -0.3690 
21    C11      2.7540  -36.8570   22.5840 C.ar    1  LIG   0.5805   0.4100 
22    C12      2.9040  -34.5090   25.6010 C.3     1  LIG  -0.0620   0.1435 
23    H7       2.2235  -33.7630   25.2820 H       1  LIG   0.0570   0.0000 
24    H8       2.4436  -35.1154   26.3371 H       1  LIG   0.0495   0.0000 
25    H9       3.7654  -34.0491   26.0108 H       1  LIG   0.0519   0.0000 
26    O1      -1.2400  -35.9060   23.9770 O.2     1  LIG  -0.6361  -0.5700 
27    C13      2.3440  -38.7570   21.0360 C.3     1  LIG   0.1354   0.0690 
28    H10      3.1238  -38.3754   20.4296 H       1  LIG   0.0981   0.1000 
29    C14      2.9380  -39.8900   21.8010 C.3     1  LIG  -0.1181  -0.2000 
30    H11      3.8890  -40.1268   21.3997 H       1  LIG   0.0732   0.1000 
31    H12      3.0430  -39.6129   22.8177 H       1  LIG   0.0789   0.1000 
32    C15      1.6390  -40.0610   21.0880 C.3     1  LIG  -0.1196  -0.2000 
33    H13      0.6832  -39.9283   21.5242 H       1  LIG   0.0807   0.1000 
34    H14      1.5292  -40.4423   20.1061 H       1  LIG   0.0733   0.1000 
@<TRIPOS>BOND
1     2     1     ar
2     3     2     1
3     4     2     ar
4     5     4     1
5     6     4     ar
6     7     6     ar
7     8     7     1
8     9     8     1
9     10    8     1
10    11    10    1
11    12    11    ar
12    13    12    1
13    14    12    ar
14    15    14    1
15    16    14    ar
16    17    16    1
17    18    16    ar
18    19    11    ar
19    19    18    ar
20    20    19    1
21    21    1     ar
22    21    7     ar
23    21    20    1
24    22    6     1
25    23    22    1
26    24    22    1
27    25    22    1
28    26    10    2
29    27    20    1
30    28    27    1
31    29    27    1
32    30    29    1
33    31    29    1
34    32    27    1
35    32    29    1
36    33    32    1
37    34    32    1
@<TRIPOS>SUBSTRUCTURE
1   LIG    1    
 
########## Name        : 1VRT.lig
########## Description : AM1BCC_CHARGES =  -0.0002 ORIGINAL_CHARGES =  -0.0000

@<TRIPOS>MOLECULE
1VRT.lig
34    37    1     0     0    
SMALL
USER_CHARGES
@<TRIPOS>ATOM
1     N1       4.0540  -36.9310   22.2210 N.ar    1  LIG  -0.6650  -0.6200 
2     C1       4.9660  -36.2380   22.9390 C.ar    1  LIG   0.3947   0.1600 
3     H1       6.0082  -36.2811   22.6707 H       1  LIG   0.0281   0.1500 
4     C2       4.6240  -35.4500   24.0360 C.ar    1  LIG  -0.2334  -0.1500 
5     H2       5.3884  -34.9151   24.5740 H       1  LIG   0.1480   0.1500 
6     C3       3.3050  -35.3690   24.4150 C.ar    1  LIG  -0.0698  -0.1435 
7     C4       2.3460  -36.0770   23.6860 C.ar    1  LIG  -0.0398   0.1170 
8     N2       0.9890  -36.0280   24.1030 N.am    1  LIG  -0.4596  -0.5470 
9     H3       0.7643  -35.9928   25.0860 H       1  LIG   0.3311   0.3700 
10    C5      -0.1450  -36.0180   23.4080 C.2     1  LIG   0.7361   0.5438 
11    C6      -0.1190  -36.0770   21.8860 C.ar    1  LIG  -0.2550   0.0862 
12    C7      -1.1230  -35.3990   21.1890 C.ar    1  LIG  -0.0321  -0.1500 
13    H4      -1.7552  -34.6955   21.7041 H       1  LIG   0.1623   0.1500 
14    C8      -1.2960  -35.6300   19.8690 C.ar    1  LIG  -0.2723  -0.1500 
15    H5      -2.0662  -35.1073   19.3273 H       1  LIG   0.1522   0.1500 
16    C9      -0.4670  -36.5450   19.2400 C.ar    1  LIG   0.4373   0.1600 
17    H6      -0.5947  -36.7554   18.1915 H       1  LIG   0.0280   0.1500 
18    N3       0.5220  -37.2120   19.8740 N.ar    1  LIG  -0.6893  -0.6200 
19    C10      0.7040  -36.9790   21.1800 C.ar    1  LIG   0.6480   0.4100 
20    N4       1.7670  -37.6730   21.8260 N.pl3   1  LIG  -0.6924  -0.3690 
21    C11      2.7540  -36.8570   22.5840 C.ar    1  LIG   0.5805   0.4100 
22    C12      2.9040  -34.5090   25.6010 C.3     1  LIG  -0.0620   0.1435 
23    H7       2.2235  -33.7630   25.2820 H       1  LIG   0.0570   0.0000 
24    H8       2.4436  -35.1154   26.3371 H       1  LIG   0.0495   0.0000 
25    H9       3.7654  -34.0491   26.0108 H       1  LIG   0.0519   0.0000 
26    O1      -1.2400  -35.9060   23.9770 O.2     1  LIG  -0.6361  -0.5700 
27    C13      2.3440  -38.7570   21.0360 C.3     1  LIG   0.1354   0.0690 
28    H10      3.1238  -38.3754   20.4296 H       1  LIG   0.0981   0.1000 
29    C14      2.9380  -39.8900   21.8010 C.3     1  LIG  -0.1181  -0.2000 
30    H11      3.8890  -40.1268   21.3997 H       1  LIG   0.0732   0.1000 
31    H12      3.0430  -39.6129   22.8177 H       1  LIG   0.0789   0.1000 
32    C15      1.6390  -40.0610   21.0880 C.3     1  LIG  -0.1196  -0.2000 
33    H13      0.6832  -39.9283   21.5242 H       1  LIG   0.0807   0.1000 
34    H14      1.5292  -40.4423   20.1061 H       1  LIG   0.0733   0.1000 
@<TRIPOS>BOND
1     2     1     ar
2     3     2     1
3     4     2     ar
4     5     4     1
5     6     4     ar
6     7     6     ar
7     8     7     1
8     9     8     1
9     10    8     1
10    11    10    1
11    12    11    ar
12    13    12    1
13    14    12    ar
14    15    14    1
15    16    14    ar
16    17    16    1
17    18    16    ar
18    19    11    ar
19    19    18    ar
20    20    19    1
21    21    1     ar
22    21    7     ar
23    21    20    1
24    22    6     1
25    23    22    1
26    24    22    1
27    25    22    1
28    26    10    2
29    27    20    1
30    28    27    1
31    29    27    1
32    30    29    1
33    31    29    1
34    32    27    1
35    32    29    1
36    33    32    1
37    34    32    1
@<TRIPOS>SUBSTRUCTURE
1   LIG    1    
 
########## Name        : 1VRT.lig
########## Description : AM1BCC_CHARGES =  -0.0002 ORIGINAL_CHARGES =  -0.0000

@<TRIPOS>MOLECULE
1VRT.lig
34    37    1     0     0    
SMALL
USER_CHARGES
@<TRIPOS>ATOM
1     N1       4.0540  -36.9310   22.2210 N.ar    1  LIG  -0.6650  -0.6200 
2     C1       4.9660  -36.2380   22.9390 C.ar    1  LIG   0.3947   0.1600 
3     H1       6.0082  -36.2811   22.6707 H       1  LIG   0.0281   0.1500 
4     C2       4.6240  -35.4500   24.0360 C.ar    1  LIG  -0.2334  -0.1500 
5     H2       5.3884  -34.9151   24.5740 H       1  LIG   0.1480   0.1500 
6     C3       3.3050  -35.3690   24.4150 C.ar    1  LIG  -0.0698  -0.1435 
7     C4       2.3460  -36.0770   23.6860 C.ar    1  LIG  -0.0398   0.1170 
8     N2       0.9890  -36.0280   24.1030 N.am    1  LIG  -0.4596  -0.5470 
9     H3       0.7643  -35.9928   25.0860 H       1  LIG   0.3311   0.3700 
10    C5      -0.1450  -36.0180   23.4080 C.2     1  LIG   0.7361   0.5438 
11    C6      -0.1190  -36.0770   21.8860 C.ar    1  LIG  -0.2550   0.0862 
12    C7      -1.1230  -35.3990   21.1890 C.ar    1  LIG  -0.0321  -0.1500 
13    H4      -1.7552  -34.6955   21.7041 H       1  LIG   0.1623   0.1500 
14    C8      -1.2960  -35.6300   19.8690 C.ar    1  LIG  -0.2723  -0.1500 
15    H5      -2.0662  -35.1073   19.3273 H       1  LIG   0.1522   0.1500 
16    C9      -0.4670  -36.5450   19.2400 C.ar    1  LIG   0.4373   0.1600 
17    H6      -0.5947  -36.7554   18.1915 H       1  LIG   0.0280   0.1500 
18    N3       0.5220  -37.2120   19.8740 N.ar    1  LIG  -0.6893  -0.6200 
19    C10      0.7040  -36.9790   21.1800 C.ar    1  LIG   0.6480   0.4100 
20    N4       1.7670  -37.6730   21.8260 N.pl3   1  LIG  -0.6924  -0.3690 
21    C11      2.7540  -36.8570   22.5840 C.ar    1  LIG   0.5805   0.4100 
22    C12      2.9040  -34.5090   25.6010 C.3     1  LIG  -0.0620   0.1435 
23    H7       2.2235  -33.7630   25.2820 H       1  LIG   0.0570   0.0000 
24    H8       2.4436  -35.1154   26.3371 H       1  LIG   0.0495   0.0000 
25    H9       3.7654  -34.0491   26.0108 H       1  LIG   0.0519   0.0000 
26    O1      -1.2400  -35.9060   23.9770 O.2     1  LIG  -0.6361  -0.5700 
27    C13      2.3440  -38.7570   21.0360 C.3     1  LIG   0.1354   0.0690 
28    H10      3.1238  -38.3754   20.4296 H       1  LIG   0.0981   0.1000 
29    C14      2.9380  -39.8900   21.8010 C.3     1  LIG  -0.1181  -0.2000 
30    H11      3.8890  -40.1268   21.3997 H       1  LIG   0.0732   0.1000 
31    H12      3.0430  -39.6129   22.8177 H       1  LIG   0.0789   0.1000 
32    C15      1.6390  -40.0610   21.0880 C.3     1  LIG  -0.1196  -0.2000 
33    H13      0.6832  -39.9283   21.5242 H       1  LIG   0.0807   0.1000 
34    H14      1.5292  -40.4423   20.1061 H       1  LIG   0.0733   0.1000 
@<TRIPOS>BOND
1     2     1     ar
2     3     2     1
3     4     2     ar
4     5     4     1
5     6     4     ar
6     7     6     ar
7     8     7     1
8     9     8     1
9     10    8     1
10    11    10    1
11    12    11    ar
12    13    12    1
13    14    12    ar
14    15    14    1
15    16    14    ar
16    17    16    1
17    18    16    ar
18    19    11    ar
19    19    18    ar
20    20    19    1
21    21    1     ar
22    21    7     ar
23    21    20    1
24    22    6     1
25    23    22    1
26    24    22    1
27    25    22    1
28    26    10    2
29    27    20    1
30    28    27    1
31    29    27    1
32    30    29    1
33    31    29    1
34    32    27    1
35    32    29    1
36    33    32    1
37    34    32    1
@<TRIPOS>SUBSTRUCTURE
1   LIG    1    
 
########## Name        : 1VRT.lig
########## Description : AM1BCC_CHARGES =  -0.0002 ORIGINAL_CHARGES =  -0.0000

@<TRIPOS>MOLECULE
1VRT.lig
34    37    1     0     0    
SMALL
USER_CHARGES
@<TRIPOS>ATOM
1     N1       4.0540  -36.9310   22.2210 N.ar    1  LIG  -0.6650  -0.6200 
2     C1       4.9660  -36.2380   22.9390 C.ar    1  LIG   0.3947   0.1600 
3     H1       6.0082  -36.2811   22.6707 H       1  LIG   0.0281   0.1500 
4     C2       4.6240  -35.4500   24.0360 C.ar    1  LIG  -0.2334  -0.1500 
5     H2       5.3884  -34.9151   24.5740 H       1  LIG   0.1480   0.1500 
6     C3       3.3050  -35.3690   24.4150 C.ar    1  LIG  -0.0698  -0.1435 
7     C4       2.3460  -36.0770   23.6860 C.ar    1  LIG  -0.0398   0.1170 
8     N2       0.9890  -36.0280   24.1030 N.am    1  LIG  -0.4596  -0.5470 
9     H3       0.7643  -35.9928   25.0860 H       1  LIG   0.3311   0.3700 
10    C5      -0.1450  -36.0180   23.4080 C.2     1  LIG   0.7361   0.5438 
11    C6      -0.1190  -36.0770   21.8860 C.ar    1  LIG  -0.2550   0.0862 
12    C7      -1.1230  -35.3990   21.1890 C.ar    1  LIG  -0.0321  -0.1500 
13    H4      -1.7552  -34.6955   21.7041 H       1  LIG   0.1623   0.1500 
14    C8      -1.2960  -35.6300   19.8690 C.ar    1  LIG  -0.2723  -0.1500 
15    H5      -2.0662  -35.1073   19.3273 H       1  LIG   0.1522   0.1500 
16    C9      -0.4670  -36.5450   19.2400 C.ar    1  LIG   0.4373   0.1600 
17    H6      -0.5947  -36.7554   18.1915 H       1  LIG   0.0280   0.1500 
18    N3       0.5220  -37.2120   19.8740 N.ar    1  LIG  -0.6893  -0.6200 
19    C10      0.7040  -36.9790   21.1800 C.ar    1  LIG   0.6480   0.4100 
20    N4       1.7670  -37.6730   21.8260 N.pl3   1  LIG  -0.6924  -0.3690 
21    C11      2.7540  -36.8570   22.5840 C.ar    1  LIG   0.5805   0.4100 
22    C12      2.9040  -34.5090   25.6010 C.3     1  LIG  -0.0620   0.1435 
23    H7       2.2235  -33.7630   25.2820 H       1  LIG   0.0570   0.0000 
24    H8       2.4436  -35.1154   26.3371 H       1  LIG   0.0495   0.0000 
25    H9       3.7654  -34.0491   26.0108 H       1  LIG   0.0519   0.0000 
26    O1      -1.2400  -35.9060   23.9770 O.2     1  LIG  -0.6361  -0.5700 
27    C13      2.3440  -38.7570   21.0360 C.3     1  LIG   0.1354   0.0690 
28    H10      3.1238  -38.3754   20.4296 H       1  LIG   0.0981   0.1000 
29    C14      2.9380  -39.8900   21.8010 C.3     1  LIG  -0.1181  -0.2000 
30    H11      3.8890  -40.1268   21.3997 H       1  LIG   0.0732   0.1000 
31    H12      3.0430  -39.6129   22.8177 H       1  LIG   0.0789   0.1000 
32    C15      1.6390  -40.0610   21.0880 C.3     1  LIG  -0.1196  -0.2000 
33    H13      0.6832  -39.9283   21.5242 H       1  LIG   0.0807   0.1000 
34    H14      1.5292  -40.4423   20.1061 H       1  LIG   0.0733   0.1000 
@<TRIPOS>BOND
1     2     1     ar
2     3     2     1
3     4     2     ar
4     5     4     1
5     6     4     ar
6     7     6     ar
7     8     7     1
8     9     8     1
9     10    8     1
10    11    10    1
11    12    11    ar
12    13    12    1
13    14    12    ar
14    15    14    1
15    16    14    ar
16    17    16    1
17    18    16    ar
18    19    11    ar
19    19    18    ar
20    20    19    1
21    21    1     ar
22    21    7     ar
23    21    20    1
24    22    6     1
25    23    22    1
26    24    22    1
27    25    22    1
28    26    10    2
29    27    20    1
30    28    27    1
31    29    27    1
32    30    29    1
33    31    29    1
34    32    27    1
35    32    29    1
36    33    32    1
37    34    32    1
@<TRIPOS>SUBSTRUCTURE
1   LIG    1    
 
########## Name        : 1VRT.lig
########## Description : AM1BCC_CHARGES =  -0.0002 ORIGINAL_CHARGES =  -0.0000

@<TRIPOS>MOLECULE
1VRT.lig
34    37    1     0     0    
SMALL
USER_CHARGES
@<TRIPOS>ATOM
1     N1       4.0540  -36.9310   22.2210 N.ar    1  LIG  -0.6650  -0.6200 
2     C1       4.9660  -36.2380   22.9390 C.ar    1  LIG   0.3947   0.1600 
3     H1       6.0082  -36.2811   22.6707 H       1  LIG   0.0281   0.1500 
4     C2       4.6240  -35.4500   24.0360 C.ar    1  LIG  -0.2334  -0.1500 
5     H2       5.3884  -34.9151   24.5740 H       1  LIG   0.1480   0.1500 
6     C3       3.3050  -35.3690   24.4150 C.ar    1  LIG  -0.0698  -0.1435 
7     C4       2.3460  -36.0770   23.6860 C.ar    1  LIG  -0.0398   0.1170 
8     N2       0.9890  -36.0280   24.1030 N.am    1  LIG  -0.4596  -0.5470 
9     H3       0.7643  -35.9928   25.0860 H       1  LIG   0.3311   0.3700 
10    C5      -0.1450  -36.0180   23.4080 C.2     1  LIG   0.7361   0.5438 
11    C6      -0.1190  -36.0770   21.8860 C.ar    1  LIG  -0.2550   0.0862 
12    C7      -1.1230  -35.3990   21.1890 C.ar    1  LIG  -0.0321  -0.1500 
13    H4      -1.7552  -34.6955   21.7041 H       1  LIG   0.1623   0.1500 
14    C8      -1.2960  -35.6300   19.8690 C.ar    1  LIG  -0.2723  -0.1500 
15    H5      -2.0662  -35.1073   19.3273 H       1  LIG   0.1522   0.1500 
16    C9      -0.4670  -36.5450   19.2400 C.ar    1  LIG   0.4373   0.1600 
17    H6      -0.5947  -36.7554   18.1915 H       1  LIG   0.0280   0.1500 
18    N3       0.5220  -37.2120   19.8740 N.ar    1  LIG  -0.6893  -0.6200 
19    C10      0.7040  -36.9790   21.1800 C.ar    1  LIG   0.6480   0.4100 
20    N4       1.7670  -37.6730   21.8260 N.pl3   1  LIG  -0.6924  -0.3690 
21    C11      2.7540  -36.8570   22.5840 C.ar    1  LIG   0.5805   0.4100 
22    C12      2.9040  -34.5090   25.6010 C.3     1  LIG  -0.0620   0.1435 
23    H7       2.2235  -33.7630   25.2820 H       1  LIG   0.0570   0.0000 
24    H8       2.4436  -35.1154   26.3371 H       1  LIG   0.0495   0.0000 
25    H9       3.7654  -34.0491   26.0108 H       1  LIG   0.0519   0.0000 
26    O1      -1.2400  -35.9060   23.9770 O.2     1  LIG  -0.6361  -0.5700 
27    C13      2.3440  -38.7570   21.0360 C.3     1  LIG   0.1354   0.0690 
28    H10      3.1238  -38.3754   20.4296 H       1  LIG   0.0981   0.1000 
29    C14      2.9380  -39.8900   21.8010 C.3     1  LIG  -0.1181  -0.2000 
30    H11      3.8890  -40.1268   21.3997 H       1  LIG   0.0732   0.1000 
31    H12      3.0430  -39.6129   22.8177 H       1  LIG   0.0789   0.1000 
32    C15      1.6390  -40.0610   21.0880 C.3     1  LIG  -0.1196  -0.2000 
33    H13      0.6832  -39.9283   21.5242 H       1  LIG   0.0807   0.1000 
34    H14      1.5292  -40.4423   20.1061 H       1  LIG   0.0733   0.1000 
@<TRIPOS>BOND
1     2     1     ar
2     3     2     1
3     4     2     ar
4     5     4     1
5     6     4     ar
6     7     6     ar
7     8     7     1
8     9     8     1
9     10    8     1
10    11    10    1
11    12    11    ar
12    13    12    1
13    14    12    ar
14    15    14    1
15    16    14    ar
16    17    16    1
17    18    16    ar
18    19    11    ar
19    19    18    ar
20    20    19    1
21    21    1     ar
22    21    7     ar
23    21    20    1
24    22    6     1
25    23    22    1
26    24    22    1
27    25    22    1
28    26    10    2
29    27    20    1
30    28    27    1
31    29    27    1
32    30    29    1
33    31    29    1
34    32    27    1
35    32    29    1
36    33    32    1
37    34    32    1
@<TRIPOS>SUBSTRUCTURE
1   LIG    1    
 
########## Name        : 1VRT.lig
########## Description : AM1BCC_CHARGES =  -0.0002 ORIGINAL_CHARGES =  -0.0000

@<TRIPOS>MOLECULE
1VRT.lig
34    37    1     0     0    
SMALL
USER_CHARGES
@<TRIPOS>ATOM
1     N1       4.0540  -36.9310   22.2210 N.ar    1  LIG  -0.6650  -0.6200 
2     C1       4.9660  -36.2380   22.9390 C.ar    1  LIG   0.3947   0.1600 
3     H1       6.0082  -36.2811   22.6707 H       1  LIG   0.0281   0.1500 
4     C2       4.6240  -35.4500   24.0360 C.ar    1  LIG  -0.2334  -0.1500 
5     H2       5.3884  -34.9151   24.5740 H       1  LIG   0.1480   0.1500 
6     C3       3.3050  -35.3690   24.4150 C.ar    1  LIG  -0.0698  -0.1435 
7     C4       2.3460  -36.0770   23.6860 C.ar    1  LIG  -0.0398   0.1170 
8     N2       0.9890  -36.0280   24.1030 N.am    1  LIG  -0.4596  -0.5470 
9     H3       0.7643  -35.9928   25.0860 H       1  LIG   0.3311   0.3700 
10    C5      -0.1450  -36.0180   23.4080 C.2     1  LIG   0.7361   0.5438 
11    C6      -0.1190  -36.0770   21.8860 C.ar    1  LIG  -0.2550   0.0862 
12    C7      -1.1230  -35.3990   21.1890 C.ar    1  LIG  -0.0321  -0.1500 
13    H4      -1.7552  -34.6955   21.7041 H       1  LIG   0.1623   0.1500 
14    C8      -1.2960  -35.6300   19.8690 C.ar    1  LIG  -0.2723  -0.1500 
15    H5      -2.0662  -35.1073   19.3273 H       1  LIG   0.1522   0.1500 
16    C9      -0.4670  -36.5450   19.2400 C.ar    1  LIG   0.4373   0.1600 
17    H6      -0.5947  -36.7554   18.1915 H       1  LIG   0.0280   0.1500 
18    N3       0.5220  -37.2120   19.8740 N.ar    1  LIG  -0.6893  -0.6200 
19    C10      0.7040  -36.9790   21.1800 C.ar    1  LIG   0.6480   0.4100 
20    N4       1.7670  -37.6730   21.8260 N.pl3   1  LIG  -0.6924  -0.3690 
21    C11      2.7540  -36.8570   22.5840 C.ar    1  LIG   0.5805   0.4100 
22    C12      2.9040  -34.5090   25.6010 C.3     1  LIG  -0.0620   0.1435 
23    H7       2.2235  -33.7630   25.2820 H       1  LIG   0.0570   0.0000 
24    H8       2.4436  -35.1154   26.3371 H       1  LIG   0.0495   0.0000 
25    H9       3.7654  -34.0491   26.0108 H       1  LIG   0.0519   0.0000 
26    O1      -1.2400  -35.9060   23.9770 O.2     1  LIG  -0.6361  -0.5700 
27    C13      2.3440  -38.7570   21.0360 C.3     1  LIG   0.1354   0.0690 
28    H10      3.1238  -38.3754   20.4296 H       1  LIG   0.0981   0.1000 
29    C14      2.9380  -39.8900   21.8010 C.3     1  LIG  -0.1181  -0.2000 
30    H11      3.8890  -40.1268   21.3997 H       1  LIG   0.0732   0.1000 
31    H12      3.0430  -39.6129   22.8177 H       1  LIG   0.0789   0.1000 
32    C15      1.6390  -40.0610   21.0880 C.3     1  LIG  -0.1196  -0.2000 
33    H13      0.6832  -39.9283   21.5242 H       1  LIG   0.0807   0.1000 
34    H14      1.5292  -40.4423   20.1061 H       1  LIG   0.0733   0.1000 
@<TRIPOS>BOND
1     2     1     ar
2     3     2     1
3     4     2     ar
4     5     4     1
5     6     4     ar
6     7     6     ar
7     8     7     1
8     9     8     1
9     10    8     1
10    11    10    1
11    12    11    ar
12    13    12    1
13    14    12    ar
14    15    14    1
15    16    14    ar
16    17    16    1
17    18    16    ar
18    19    11    ar
19    19    18    ar
20    20    19    1
21    21    1     ar
22    21    7     ar
23    21    20    1
24    22    6     1
25    23    22    1
26    24    22    1
27    25    22    1
28    26    10    2
29    27    20    1
30    28    27    1
31    29    27    1
32    30    29    1
33    31    29    1
34    32    27    1
35    32    29    1
36    33    32    1
37    34    32    1
@<TRIPOS>SUBSTRUCTURE
1   LIG    1    
 
########## Name        : 1VRT.lig
########## Description : AM1BCC_CHARGES =  -0.0002 ORIGINAL_CHARGES =  -0.0000

@<TRIPOS>MOLECULE
1VRT.lig
34    37    1     0     0    
SMALL
USER_CHARGES
@<TRIPOS>ATOM
1     N1       4.0540  -36.9310   22.2210 N.ar    1  LIG  -0.6650  -0.6200 
2     C1       4.9660  -36.2380   22.9390 C.ar    1  LIG   0.3947   0.1600 
3     H1       6.0082  -36.2811   22.6707 H       1  LIG   0.0281   0.1500 
4     C2       4.6240  -35.4500   24.0360 C.ar    1  LIG  -0.2334  -0.1500 
5     H2       5.3884  -34.9151   24.5740 H       1  LIG   0.1480   0.1500 
6     C3       3.3050  -35.3690   24.4150 C.ar    1  LIG  -0.0698  -0.1435 
7     C4       2.3460  -36.0770   23.6860 C.ar    1  LIG  -0.0398   0.1170 
8     N2       0.9890  -36.0280   24.1030 N.am    1  LIG  -0.4596  -0.5470 
9     H3       0.7643  -35.9928   25.0860 H       1  LIG   0.3311   0.3700 
10    C5      -0.1450  -36.0180   23.4080 C.2     1  LIG   0.7361   0.5438 
11    C6      -0.1190  -36.0770   21.8860 C.ar    1  LIG  -0.2550   0.0862 
12    C7      -1.1230  -35.3990   21.1890 C.ar    1  LIG  -0.0321  -0.1500 
13    H4      -1.7552  -34.6955   21.7041 H       1  LIG   0.1623   0.1500 
14    C8      -1.2960  -35.6300   19.8690 C.ar    1  LIG  -0.2723  -0.1500 
15    H5      -2.0662  -35.1073   19.3273 H       1  LIG   0.1522   0.1500 
16    C9      -0.4670  -36.5450   19.2400 C.ar    1  LIG   0.4373   0.1600 
17    H6      -0.5947  -36.7554   18.1915 H       1  LIG   0.0280   0.1500 
18    N3       0.5220  -37.2120   19.8740 N.ar    1  LIG  -0.6893  -0.6200 
19    C10      0.7040  -36.9790   21.1800 C.ar    1  LIG   0.6480   0.4100 
20    N4       1.7670  -37.6730   21.8260 N.pl3   1  LIG  -0.6924  -0.3690 
21    C11      2.7540  -36.8570   22.5840 C.ar    1  LIG   0.5805   0.4100 
22    C12      2.9040  -34.5090   25.6010 C.3     1  LIG  -0.0620   0.1435 
23    H7       2.2235  -33.7630   25.2820 H       1  LIG   0.0570   0.0000 
24    H8       2.4436  -35.1154   26.3371 H       1  LIG   0.0495   0.0000 
25    H9       3.7654  -34.0491   26.0108 H       1  LIG   0.0519   0.0000 
26    O1      -1.2400  -35.9060   23.9770 O.2     1  LIG  -0.6361  -0.5700 
27    C13      2.3440  -38.7570   21.0360 C.3     1  LIG   0.1354   0.0690 
28    H10      3.1238  -38.3754   20.4296 H       1  LIG   0.0981   0.1000 
29    C14      2.9380  -39.8900   21.8010 C.3     1  LIG  -0.1181  -0.2000 
30    H11      3.8890  -40.1268   21.3997 H       1  LIG   0.0732   0.1000 
31    H12      3.0430  -39.6129   22.8177 H       1  LIG   0.0789   0.1000 
32    C15      1.6390  -40.0610   21.0880 C.3     1  LIG  -0.1196  -0.2000 
33    H13      0.6832  -39.9283   21.5242 H       1  LIG   0.0807   0.1000 
34    H14      1.5292  -40.4423   20.1061 H       1  LIG   0.0733   0.1000 
@<TRIPOS>BOND
1     2     1     ar
2     3     2     1
3     4     2     ar
4     5     4     1
5     6     4     ar
6     7     6     ar
7     8     7     1
8     9     8     1
9     10    8     1
10    11    10    1
11    12    11    ar
12    13    12    1
13    14    12    ar
14    15    14    1
15    16    14    ar
16    17    16    1
17    18    16    ar
18    19    11    ar
19    19    18    ar
20    20    19    1
21    21    1     ar
22    21    7     ar
23    21    20    1
24    22    6     1
25    23    22    1
26    24    22    1
27    25    22    1
28    26    10    2
29    27    20    1
30    28    27    1
31    29    27    1
32    30    29    1
33    31    29    1
34    32    27    1
35    32    29    1
36    33    32    1
37    34    32    1
@<TRIPOS>SUBSTRUCTURE
1   LIG    1    
 
########## Name        : 1VRT.lig
########## Description : AM1BCC_CHARGES =  -0.0002 ORIGINAL_CHARGES =  -0.0000

@<TRIPOS>MOLECULE
1VRT.lig
34    37    1     0     0    
SMALL
USER_CHARGES
@<TRIPOS>ATOM
1     N1       4.0540  -36.9310   22.2210 N.ar    1  LIG  -0.6650  -0.6200 
2     C1       4.9660  -36.2380   22.9390 C.ar    1  LIG   0.3947   0.1600 
3     H1       6.0082  -36.2811   22.6707 H       1  LIG   0.0281   0.1500 
4     C2       4.6240  -35.4500   24.0360 C.ar    1  LIG  -0.2334  -0.1500 
5     H2       5.3884  -34.9151   24.5740 H       1  LIG   0.1480   0.1500 
6     C3       3.3050  -35.3690   24.4150 C.ar    1  LIG  -0.0698  -0.1435 
7     C4       2.3460  -36.0770   23.6860 C.ar    1  LIG  -0.0398   0.1170 
8     N2       0.9890  -36.0280   24.1030 N.am    1  LIG  -0.4596  -0.5470 
9     H3       0.7643  -35.9928   25.0860 H       1  LIG   0.3311   0.3700 
10    C5      -0.1450  -36.0180   23.4080 C.2     1  LIG   0.7361   0.5438 
11    C6      -0.1190  -36.0770   21.8860 C.ar    1  LIG  -0.2550   0.0862 
12    C7      -1.1230  -35.3990   21.1890 C.ar    1  LIG  -0.0321  -0.1500 
13    H4      -1.7552  -34.6955   21.7041 H       1  LIG   0.1623   0.1500 
14    C8      -1.2960  -35.6300   19.8690 C.ar    1  LIG  -0.2723  -0.1500 
15    H5      -2.0662  -35.1073   19.3273 H       1  LIG   0.1522   0.1500 
16    C9      -0.4670  -36.5450   19.2400 C.ar    1  LIG   0.4373   0.1600 
17    H6      -0.5947  -36.7554   18.1915 H       1  LIG   0.0280   0.1500 
18    N3       0.5220  -37.2120   19.8740 N.ar    1  LIG  -0.6893  -0.6200 
19    C10      0.7040  -36.9790   21.1800 C.ar    1  LIG   0.6480   0.4100 
20    N4       1.7670  -37.6730   21.8260 N.pl3   1  LIG  -0.6924  -0.3690 
21    C11      2.7540  -36.8570   22.5840 C.ar    1  LIG   0.5805   0.4100 
22    C12      2.9040  -34.5090   25.6010 C.3     1  LIG  -0.0620   0.1435 
23    H7       2.2235  -33.7630   25.2820 H       1  LIG   0.0570   0.0000 
24    H8       2.4436  -35.1154   26.3371 H       1  LIG   0.0495   0.0000 
25    H9       3.7654  -34.0491   26.0108 H       1  LIG   0.0519   0.0000 
26    O1      -1.2400  -35.9060   23.9770 O.2     1  LIG  -0.6361  -0.5700 
27    C13      2.3440  -38.7570   21.0360 C.3     1  LIG   0.1354   0.0690 
28    H10      3.1238  -38.3754   20.4296 H       1  LIG   0.0981   0.1000 
29    C14      2.9380  -39.8900   21.8010 C.3     1  LIG  -0.1181  -0.2000 
30    H11      3.8890  -40.1268   21.3997 H       1  LIG   0.0732   0.1000 
31    H12      3.0430  -39.6129   22.8177 H       1  LIG   0.0789   0.1000 
32    C15      1.6390  -40.0610   21.0880 C.3     1  LIG  -0.1196  -0.2000 
33    H13      0.6832  -39.9283   21.5242 H       1  LIG   0.0807   0.1000 
34    H14      1.5292  -40.4423   20.1061 H       1  LIG   0.0733   0.1000 
@<TRIPOS>BOND
1     2     1     ar
2     3     2     1
3     4     2     ar
4     5     4     1
5     6     4     ar
6     7     6     ar
7     8     7     1
8     9     8     1
9     10    8     1
10    11    10    1
11    12    11    ar
12    13    12    1
13    14    12    ar
14    15    14    1
15    16    14    ar
16    17    16    1
17    18    16    ar
18    19    11    ar
19    19    18    ar
20    20    19    1
21    21    1     ar
22    21    7     ar
23    21    20    1
24    22    6     1
25    23    22    1
26    24    22    1
27    25    22    1
28    26    10    2
29    27    20    1
30    28    27    1
31    29    27    1
32    30    29    1
33    31    29    1
34    32    27    1
35    32    29    1
36    33    32    1
37    34    32    1
@<TRIPOS>SUBSTRUCTURE
1   LIG    1    
 
########## Name        : 1VRT.lig
########## Description : AM1BCC_CHARGES =  -0.0002 ORIGINAL_CHARGES =  -0.0000

@<TRIPOS>MOLECULE
1VRT.lig
34    37    1     0     0    
SMALL
USER_CHARGES
@<TRIPOS>ATOM
1     N1       4.0540  -36.9310   22.2210 N.ar    1  LIG  -0.6650  -0.6200 
2     C1       4.9660  -36.2380   22.9390 C.ar    1  LIG   0.3947   0.1600 
3     H1       6.0082  -36.2811   22.6707 H       1  LIG   0.0281   0.1500 
4     C2       4.6240  -35.4500   24.0360 C.ar    1  LIG  -0.2334  -0.1500 
5     H2       5.3884  -34.9151   24.5740 H       1  LIG   0.1480   0.1500 
6     C3       3.3050  -35.3690   24.4150 C.ar    1  LIG  -0.0698  -0.1435 
7     C4       2.3460  -36.0770   23.6860 C.ar    1  LIG  -0.0398   0.1170 
8     N2       0.9890  -36.0280   24.1030 N.am    1  LIG  -0.4596  -0.5470 
9     H3       0.7643  -35.9928   25.0860 H       1  LIG   0.3311   0.3700 
10    C5      -0.1450  -36.0180   23.4080 C.2     1  LIG   0.7361   0.5438 
11    C6      -0.1190  -36.0770   21.8860 C.ar    1  LIG  -0.2550   0.0862 
12    C7      -1.1230  -35.3990   21.1890 C.ar    1  LIG  -0.0321  -0.1500 
13    H4      -1.7552  -34.6955   21.7041 H       1  LIG   0.1623   0.1500 
14    C8      -1.2960  -35.6300   19.8690 C.ar    1  LIG  -0.2723  -0.1500 
15    H5      -2.0662  -35.1073   19.3273 H       1  LIG   0.1522   0.1500 
16    C9      -0.4670  -36.5450   19.2400 C.ar    1  LIG   0.4373   0.1600 
17    H6      -0.5947  -36.7554   18.1915 H       1  LIG   0.0280   0.1500 
18    N3       0.5220  -37.2120   19.8740 N.ar    1  LIG  -0.6893  -0.6200 
19    C10      0.7040  -36.9790   21.1800 C.ar    1  LIG   0.6480   0.4100 
20    N4       1.7670  -37.6730   21.8260 N.pl3   1  LIG  -0.6924  -0.3690 
21    C11      2.7540  -36.8570   22.5840 C.ar    1  LIG   0.5805   0.4100 
22    C12      2.9040  -34.5090   25.6010 C.3     1  LIG  -0.0620   0.1435 
23    H7       2.2235  -33.7630   25.2820 H       1  LIG   0.0570   0.0000 
24    H8       2.4436  -35.1154   26.3371 H       1  LIG   0.0495   0.0000 
25    H9       3.7654  -34.0491   26.0108 H       1  LIG   0.0519   0.0000 
26    O1      -1.2400  -35.9060   23.9770 O.2     1  LIG  -0.6361  -0.5700 
27    C13      2.3440  -38.7570   21.0360 C.3     1  LIG   0.1354   0.0690 
28    H10      3.1238  -38.3754   20.4296 H       1  LIG   0.0981   0.1000 
29    C14      2.9380  -39.8900   21.8010 C.3     1  LIG  -0.1181  -0.2000 
30    H11      3.8890  -40.1268   21.3997 H       1  LIG   0.0732   0.1000 
31    H12      3.0430  -39.6129   22.8177 H       1  LIG   0.0789   0.1000 
32    C15      1.6390  -40.0610   21.0880 C.3     1  LIG  -0.1196  -0.2000 
33    H13      0.6832  -39.9283   21.5242 H       1  LIG   0.0807   0.1000 
34    H14      1.5292  -40.4423   20.1061 H       1  LIG   0.0733   0.1000 
@<TRIPOS>BOND
1     2     1     ar
2     3     2     1
3     4     2     ar
4     5     4     1
5     6     4     ar
6     7     6     ar
7     8     7     1
8     9     8     1
9     10    8     1
10    11    10    1
11    12    11    ar
12    13    12    1
13    14    12    ar
14    15    14    1
15    16    14    ar
16    17    16    1
17    18    16    ar
18    19    11    ar
19    19    18    ar
20    20    19    1
21    21    1     ar
22    21    7     ar
23    21    20    1
24    22    6     1
25    23    22    1
26    24    22    1
27    25    22    1
28    26    10    2
29    27    20    1
30    28    27    1
31    29    27    1
32    30    29    1
33    31    29    1
34    32    27    1
35    32    29    1
36    33    32    1
37    34    32    1
@<TRIPOS>SUBSTRUCTURE
1   LIG    1    
 
########## Name        : 1VRT.lig
########## Description : AM1BCC_CHARGES =  -0.0002 ORIGINAL_CHARGES =  -0.0000

@<TRIPOS>MOLECULE
1VRT.lig
34    37    1     0     0    
SMALL
USER_CHARGES
@<TRIPOS>ATOM
1     N1       4.0540  -36.9310   22.2210 N.ar    1  LIG  -0.6650  -0.6200 
2     C1       4.9660  -36.2380   22.9390 C.ar    1  LIG   0.3947   0.1600 
3     H1       6.0082  -36.2811   22.6707 H       1  LIG   0.0281   0.1500 
4     C2       4.6240  -35.4500   24.0360 C.ar    1  LIG  -0.2334  -0.1500 
5     H2       5.3884  -34.9151   24.5740 H       1  LIG   0.1480   0.1500 
6     C3       3.3050  -35.3690   24.4150 C.ar    1  LIG  -0.0698  -0.1435 
7     C4       2.3460  -36.0770   23.6860 C.ar    1  LIG  -0.0398   0.1170 
8     N2       0.9890  -36.0280   24.1030 N.am    1  LIG  -0.4596  -0.5470 
9     H3       0.7643  -35.9928   25.0860 H       1  LIG   0.3311   0.3700 
10    C5      -0.1450  -36.0180   23.4080 C.2     1  LIG   0.7361   0.5438 
11    C6      -0.1190  -36.0770   21.8860 C.ar    1  LIG  -0.2550   0.0862 
12    C7      -1.1230  -35.3990   21.1890 C.ar    1  LIG  -0.0321  -0.1500 
13    H4      -1.7552  -34.6955   21.7041 H       1  LIG   0.1623   0.1500 
14    C8      -1.2960  -35.6300   19.8690 C.ar    1  LIG  -0.2723  -0.1500 
15    H5      -2.0662  -35.1073   19.3273 H       1  LIG   0.1522   0.1500 
16    C9      -0.4670  -36.5450   19.2400 C.ar    1  LIG   0.4373   0.1600 
17    H6      -0.5947  -36.7554   18.1915 H       1  LIG   0.0280   0.1500 
18    N3       0.5220  -37.2120   19.8740 N.ar    1  LIG  -0.6893  -0.6200 
19    C10      0.7040  -36.9790   21.1800 C.ar    1  LIG   0.6480   0.4100 
20    N4       1.7670  -37.6730   21.8260 N.pl3   1  LIG  -0.6924  -0.3690 
21    C11      2.7540  -36.8570   22.5840 C.ar    1  LIG   0.5805   0.4100 
22    C12      2.9040  -34.5090   25.6010 C.3     1  LIG  -0.0620   0.1435 
23    H7       2.2235  -33.7630   25.2820 H       1  LIG   0.0570   0.0000 
24    H8       2.4436  -35.1154   26.3371 H       1  LIG   0.0495   0.0000 
25    H9       3.7654  -34.0491   26.0108 H       1  LIG   0.0519   0.0000 
26    O1      -1.2400  -35.9060   23.9770 O.2     1  LIG  -0.6361  -0.5700 
27    C13      2.3440  -38.7570   21.0360 C.3     1  LIG   0.1354   0.0690 
28    H10      3.1238  -38.3754   20.4296 H       1  LIG   0.0981   0.1000 
29    C14      2.9380  -39.8900   21.8010 C.3     1  LIG  -0.1181  -0.2000 
30    H11      3.8890  -40.1268   21.3997 H       1  LIG   0.0732   0.1000 
31    H12      3.0430  -39.6129   22.8177 H       1  LIG   0.0789   0.1000 
32    C15      1.6390  -40.0610   21.0880 C.3     1  LIG  -0.1196  -0.2000 
33    H13      0.6832  -39.9283   21.5242 H       1  LIG   0.0807   0.1000 
34    H14      1.5292  -40.4423   20.1061 H       1  LIG   0.0733   0.1000 
@<TRIPOS>BOND
1     2     1     ar
2     3     2     1
3     4     2     ar
4     5     4     1
5     6     4     ar
6     7     6     ar
7     8     7     1
8     9     8     1
9     10    8     1
10    11    10    1
11    12    11    ar
12    13    12    1
13    14    12    ar
14    15    14    1
15    16    14    ar
16    17    16    1
17    18    16    ar
18    19    11    ar
19    19    18    ar
20    20    19    1
21    21    1     ar
22    21    7     ar
23    21    20    1
24    22    6     1
25    23    22    1
26    24    22    1
27    25    22    1
28    26    10    2
29    27    20    1
30    28    27    1
31    29    27    1
32    30    29    1
33    31    29    1
34    32    27    1
35    32    29    1
36    33    32    1
37    34    32    1
@<TRIPOS>SUBSTRUCTURE
1   LIG    1    
 
########## Name        : 1VRT.lig
########## Description : AM1BCC_CHARGES =  -0.0002 ORIGINAL_CHARGES =  -0.0000

@<TRIPOS>MOLECULE
1VRT.lig
34    37    1     0     0    
SMALL
USER_CHARGES
@<TRIPOS>ATOM
1     N1       4.0540  -36.9310   22.2210 N.ar    1  LIG  -0.6650  -0.6200 
2     C1       4.9660  -36.2380   22.9390 C.ar    1  LIG   0.3947   0.1600 
3     H1       6.0082  -36.2811   22.6707 H       1  LIG   0.0281   0.1500 
4     C2       4.6240  -35.4500   24.0360 C.ar    1  LIG  -0.2334  -0.1500 
5     H2       5.3884  -34.9151   24.5740 H       1  LIG   0.1480   0.1500 
6     C3       3.3050  -35.3690   24.4150 C.ar    1  LIG  -0.0698  -0.1435 
7     C4       2.3460  -36.0770   23.6860 C.ar    1  LIG  -0.0398   0.1170 
8     N2       0.9890  -36.0280   24.1030 N.am    1  LIG  -0.4596  -0.5470 
9     H3       0.7643  -35.9928   25.0860 H       1  LIG   0.3311   0.3700 
10    C5      -0.1450  -36.0180   23.4080 C.2     1  LIG   0.7361   0.5438 
11    C6      -0.1190  -36.0770   21.8860 C.ar    1  LIG  -0.2550   0.0862 
12    C7      -1.1230  -35.3990   21.1890 C.ar    1  LIG  -0.0321  -0.1500 
13    H4      -1.7552  -34.6955   21.7041 H       1  LIG   0.1623   0.1500 
14    C8      -1.2960  -35.6300   19.8690 C.ar    1  LIG  -0.2723  -0.1500 
15    H5      -2.0662  -35.1073   19.3273 H       1  LIG   0.1522   0.1500 
16    C9      -0.4670  -36.5450   19.2400 C.ar    1  LIG   0.4373   0.1600 
17    H6      -0.5947  -36.7554   18.1915 H       1  LIG   0.0280   0.1500 
18    N3       0.5220  -37.2120   19.8740 N.ar    1  LIG  -0.6893  -0.6200 
19    C10      0.7040  -36.9790   21.1800 C.ar    1  LIG   0.6480   0.4100 
20    N4       1.7670  -37.6730   21.8260 N.pl3   1  LIG  -0.6924  -0.3690 
21    C11      2.7540  -36.8570   22.5840 C.ar    1  LIG   0.5805   0.4100 
22    C12      2.9040  -34.5090   25.6010 C.3     1  LIG  -0.0620   0.1435 
23    H7       2.2235  -33.7630   25.2820 H       1  LIG   0.0570   0.0000 
24    H8       2.4436  -35.1154   26.3371 H       1  LIG   0.0495   0.0000 
25    H9       3.7654  -34.0491   26.0108 H       1  LIG   0.0519   0.0000 
26    O1      -1.2400  -35.9060   23.9770 O.2     1  LIG  -0.6361  -0.5700 
27    C13      2.3440  -38.7570   21.0360 C.3     1  LIG   0.1354   0.0690 
28    H10      3.1238  -38.3754   20.4296 H       1  LIG   0.0981   0.1000 
29    C14      2.9380  -39.8900   21.8010 C.3     1  LIG  -0.1181  -0.2000 
30    H11      3.8890  -40.1268   21.3997 H       1  LIG   0.0732   0.1000 
31    H12      3.0430  -39.6129   22.8177 H       1  LIG   0.0789   0.1000 
32    C15      1.6390  -40.0610   21.0880 C.3     1  LIG  -0.1196  -0.2000 
33    H13      0.6832  -39.9283   21.5242 H       1  LIG   0.0807   0.1000 
34    H14      1.5292  -40.4423   20.1061 H       1  LIG   0.0733   0.1000 
@<TRIPOS>BOND
1     2     1     ar
2     3     2     1
3     4     2     ar
4     5     4     1
5     6     4     ar
6     7     6     ar
7     8     7     1
8     9     8     1
9     10    8     1
10    11    10    1
11    12    11    ar
12    13    12    1
13    14    12    ar
14    15    14    1
15    16    14    ar
16    17    16    1
17    18    16    ar
18    19    11    ar
19    19    18    ar
20    20    19    1
21    21    1     ar
22    21    7     ar
23    21    20    1
24    22    6     1
25    23    22    1
26    24    22    1
27    25    22    1
28    26    10    2
29    27    20    1
30    28    27    1
31    29    27    1
32    30    29    1
33    31    29    1
34    32    27    1
35    32    29    1
36    33    32    1
37    34    32    1
@<TRIPOS>SUBSTRUCTURE
1   LIG    1    
 
########## Name        : 1VRT.lig
########## Description : AM1BCC_CHARGES =  -0.0002 ORIGINAL_CHARGES =  -0.0000

@<TRIPOS>MOLECULE
1VRT.lig
34    37    1     0     0    
SMALL
USER_CHARGES
@<TRIPOS>ATOM
1     N1       4.0540  -36.9310   22.2210 N.ar    1  LIG  -0.6650  -0.6200 
2     C1       4.9660  -36.2380   22.9390 C.ar    1  LIG   0.3947   0.1600 
3     H1       6.0082  -36.2811   22.6707 H       1  LIG   0.0281   0.1500 
4     C2       4.6240  -35.4500   24.0360 C.ar    1  LIG  -0.2334  -0.1500 
5     H2       5.3884  -34.9151   24.5740 H       1  LIG   0.1480   0.1500 
6     C3       3.3050  -35.3690   24.4150 C.ar    1  LIG  -0.0698  -0.1435 
7     C4       2.3460  -36.0770   23.6860 C.ar    1  LIG  -0.0398   0.1170 
8     N2       0.9890  -36.0280   24.1030 N.am    1  LIG  -0.4596  -0.5470 
9     H3       0.7643  -35.9928   25.0860 H       1  LIG   0.3311   0.3700 
10    C5      -0.1450  -36.0180   23.4080 C.2     1  LIG   0.7361   0.5438 
11    C6      -0.1190  -36.0770   21.8860 C.ar    1  LIG  -0.2550   0.0862 
12    C7      -1.1230  -35.3990   21.1890 C.ar    1  LIG  -0.0321  -0.1500 
13    H4      -1.7552  -34.6955   21.7041 H       1  LIG   0.1623   0.1500 
14    C8      -1.2960  -35.6300   19.8690 C.ar    1  LIG  -0.2723  -0.1500 
15    H5      -2.0662  -35.1073   19.3273 H       1  LIG   0.1522   0.1500 
16    C9      -0.4670  -36.5450   19.2400 C.ar    1  LIG   0.4373   0.1600 
17    H6      -0.5947  -36.7554   18.1915 H       1  LIG   0.0280   0.1500 
18    N3       0.5220  -37.2120   19.8740 N.ar    1  LIG  -0.6893  -0.6200 
19    C10      0.7040  -36.9790   21.1800 C.ar    1  LIG   0.6480   0.4100 
20    N4       1.7670  -37.6730   21.8260 N.pl3   1  LIG  -0.6924  -0.3690 
21    C11      2.7540  -36.8570   22.5840 C.ar    1  LIG   0.5805   0.4100 
22    C12      2.9040  -34.5090   25.6010 C.3     1  LIG  -0.0620   0.1435 
23    H7       2.2235  -33.7630   25.2820 H       1  LIG   0.0570   0.0000 
24    H8       2.4436  -35.1154   26.3371 H       1  LIG   0.0495   0.0000 
25    H9       3.7654  -34.0491   26.0108 H       1  LIG   0.0519   0.0000 
26    O1      -1.2400  -35.9060   23.9770 O.2     1  LIG  -0.6361  -0.5700 
27    C13      2.3440  -38.7570   21.0360 C.3     1  LIG   0.1354   0.0690 
28    H10      3.1238  -38.3754   20.4296 H       1  LIG   0.0981   0.1000 
29    C14      2.9380  -39.8900   21.8010 C.3     1  LIG  -0.1181  -0.2000 
30    H11      3.8890  -40.1268   21.3997 H       1  LIG   0.0732   0.1000 
31    H12      3.0430  -39.6129   22.8177 H       1  LIG   0.0789   0.1000 
32    C15      1.6390  -40.0610   21.0880 C.3     1  LIG  -0.1196  -0.2000 
33    H13      0.6832  -39.9283   21.5242 H       1  LIG   0.0807   0.1000 
34    H14      1.5292  -40.4423   20.1061 H       1  LIG   0.0733   0.1000 
@<TRIPOS>BOND
1     2     1     ar
2     3     2     1
3     4     2     ar
4     5     4     1
5     6     4     ar
6     7     6     ar
7     8     7     1
8     9     8     1
9     10    8     1
10    11    10    1
11    12    11    ar
12    13    12    1
13    14    12    ar
14    15    14    1
15    16    14    ar
16    17    16    1
17    18    16    ar
18    19    11    ar
19    19    18    ar
20    20    19    1
21    21    1     ar
22    21    7     ar
23    21    20    1
24    22    6     1
25    23    22    1
26    24    22    1
27    25    22    1
28    26    10    2
29    27    20    1
30    28    27    1
31    29    27    1
32    30    29    1
33    31    29    1
34    32    27    1
35    32    29    1
36    33    32    1
37    34    32    1
@<TRIPOS>SUBSTRUCTURE
1   LIG    1    
 
########## Name        : 1VRT.lig
########## Description : AM1BCC_CHARGES =  -0.0002 ORIGINAL_CHARGES =  -0.0000

@<TRIPOS>MOLECULE
1VRT.lig
34    37    1     0     0    
SMALL
USER_CHARGES
@<TRIPOS>ATOM
1     N1       4.0540  -36.9310   22.2210 N.ar    1  LIG  -0.6650  -0.6200 
2     C1       4.9660  -36.2380   22.9390 C.ar    1  LIG   0.3947   0.1600 
3     H1       6.0082  -36.2811   22.6707 H       1  LIG   0.0281   0.1500 
4     C2       4.6240  -35.4500   24.0360 C.ar    1  LIG  -0.2334  -0.1500 
5     H2       5.3884  -34.9151   24.5740 H       1  LIG   0.1480   0.1500 
6     C3       3.3050  -35.3690   24.4150 C.ar    1  LIG  -0.0698  -0.1435 
7     C4       2.3460  -36.0770   23.6860 C.ar    1  LIG  -0.0398   0.1170 
8     N2       0.9890  -36.0280   24.1030 N.am    1  LIG  -0.4596  -0.5470 
9     H3       0.7643  -35.9928   25.0860 H       1  LIG   0.3311   0.3700 
10    C5      -0.1450  -36.0180   23.4080 C.2     1  LIG   0.7361   0.5438 
11    C6      -0.1190  -36.0770   21.8860 C.ar    1  LIG  -0.2550   0.0862 
12    C7      -1.1230  -35.3990   21.1890 C.ar    1  LIG  -0.0321  -0.1500 
13    H4      -1.7552  -34.6955   21.7041 H       1  LIG   0.1623   0.1500 
14    C8      -1.2960  -35.6300   19.8690 C.ar    1  LIG  -0.2723  -0.1500 
15    H5      -2.0662  -35.1073   19.3273 H       1  LIG   0.1522   0.1500 
16    C9      -0.4670  -36.5450   19.2400 C.ar    1  LIG   0.4373   0.1600 
17    H6      -0.5947  -36.7554   18.1915 H       1  LIG   0.0280   0.1500 
18    N3       0.5220  -37.2120   19.8740 N.ar    1  LIG  -0.6893  -0.6200 
19    C10      0.7040  -36.9790   21.1800 C.ar    1  LIG   0.6480   0.4100 
20    N4       1.7670  -37.6730   21.8260 N.pl3   1  LIG  -0.6924  -0.3690 
21    C11      2.7540  -36.8570   22.5840 C.ar    1  LIG   0.5805   0.4100 
22    C12      2.9040  -34.5090   25.6010 C.3     1  LIG  -0.0620   0.1435 
23    H7       2.2235  -33.7630   25.2820 H       1  LIG   0.0570   0.0000 
24    H8       2.4436  -35.1154   26.3371 H       1  LIG   0.0495   0.0000 
25    H9       3.7654  -34.0491   26.0108 H       1  LIG   0.0519   0.0000 
26    O1      -1.2400  -35.9060   23.9770 O.2     1  LIG  -0.6361  -0.5700 
27    C13      2.3440  -38.7570   21.0360 C.3     1  LIG   0.1354   0.0690 
28    H10      3.1238  -38.3754   20.4296 H       1  LIG   0.0981   0.1000 
29    C14      2.9380  -39.8900   21.8010 C.3     1  LIG  -0.1181  -0.2000 
30    H11      3.8890  -40.1268   21.3997 H       1  LIG   0.0732   0.1000 
31    H12      3.0430  -39.6129   22.8177 H       1  LIG   0.0789   0.1000 
32    C15      1.6390  -40.0610   21.0880 C.3     1  LIG  -0.1196  -0.2000 
33    H13      0.6832  -39.9283   21.5242 H       1  LIG   0.0807   0.1000 
34    H14      1.5292  -40.4423   20.1061 H       1  LIG   0.0733   0.1000 
@<TRIPOS>BOND
1     2     1     ar
2     3     2     1
3     4     2     ar
4     5     4     1
5     6     4     ar
6     7     6     ar
7     8     7     1
8     9     8     1
9     10    8     1
10    11    10    1
11    12    11    ar
12    13    12    1
13    14    12    ar
14    15    14    1
15    16    14    ar
16    17    16    1
17    18    16    ar
18    19    11    ar
19    19    18    ar
20    20    19    1
21    21    1     ar
22    21    7     ar
23    21    20    1
24    22    6     1
25    23    22    1
26    24    22    1
27    25    22    1
28    26    10    2
29    27    20    1
30    28    27    1
31    29    27    1
32    30    29    1
33    31    29    1
34    32    27    1
35    32    29    1
36    33    32    1
37    34    32    1
@<TRIPOS>SUBSTRUCTURE
1   LIG    1    
 
########## Name        : 1VRT.lig
########## Description : AM1BCC_CHARGES =  -0.0002 ORIGINAL_CHARGES =  -0.0000

@<TRIPOS>MOLECULE
1VRT.lig
34    37    1     0     0    
SMALL
USER_CHARGES
@<TRIPOS>ATOM
1     N1       4.0540  -36.9310   22.2210 N.ar    1  LIG  -0.6650  -0.6200 
2     C1       4.9660  -36.2380   22.9390 C.ar    1  LIG   0.3947   0.1600 
3     H1       6.0082  -36.2811   22.6707 H       1  LIG   0.0281   0.1500 
4     C2       4.6240  -35.4500   24.0360 C.ar    1  LIG  -0.2334  -0.1500 
5     H2       5.3884  -34.9151   24.5740 H       1  LIG   0.1480   0.1500 
6     C3       3.3050  -35.3690   24.4150 C.ar    1  LIG  -0.0698  -0.1435 
7     C4       2.3460  -36.0770   23.6860 C.ar    1  LIG  -0.0398   0.1170 
8     N2       0.9890  -36.0280   24.1030 N.am    1  LIG  -0.4596  -0.5470 
9     H3       0.7643  -35.9928   25.0860 H       1  LIG   0.3311   0.3700 
10    C5      -0.1450  -36.0180   23.4080 C.2     1  LIG   0.7361   0.5438 
11    C6      -0.1190  -36.0770   21.8860 C.ar    1  LIG  -0.2550   0.0862 
12    C7      -1.1230  -35.3990   21.1890 C.ar    1  LIG  -0.0321  -0.1500 
13    H4      -1.7552  -34.6955   21.7041 H       1  LIG   0.1623   0.1500 
14    C8      -1.2960  -35.6300   19.8690 C.ar    1  LIG  -0.2723  -0.1500 
15    H5      -2.0662  -35.1073   19.3273 H       1  LIG   0.1522   0.1500 
16    C9      -0.4670  -36.5450   19.2400 C.ar    1  LIG   0.4373   0.1600 
17    H6      -0.5947  -36.7554   18.1915 H       1  LIG   0.0280   0.1500 
18    N3       0.5220  -37.2120   19.8740 N.ar    1  LIG  -0.6893  -0.6200 
19    C10      0.7040  -36.9790   21.1800 C.ar    1  LIG   0.6480   0.4100 
20    N4       1.7670  -37.6730   21.8260 N.pl3   1  LIG  -0.6924  -0.3690 
21    C11      2.7540  -36.8570   22.5840 C.ar    1  LIG   0.5805   0.4100 
22    C12      2.9040  -34.5090   25.6010 C.3     1  LIG  -0.0620   0.1435 
23    H7       2.2235  -33.7630   25.2820 H       1  LIG   0.0570   0.0000 
24    H8       2.4436  -35.1154   26.3371 H       1  LIG   0.0495   0.0000 
25    H9       3.7654  -34.0491   26.0108 H       1  LIG   0.0519   0.0000 
26    O1      -1.2400  -35.9060   23.9770 O.2     1  LIG  -0.6361  -0.5700 
27    C13      2.3440  -38.7570   21.0360 C.3     1  LIG   0.1354   0.0690 
28    H10      3.1238  -38.3754   20.4296 H       1  LIG   0.0981   0.1000 
29    C14      2.9380  -39.8900   21.8010 C.3     1  LIG  -0.1181  -0.2000 
30    H11      3.8890  -40.1268   21.3997 H       1  LIG   0.0732   0.1000 
31    H12      3.0430  -39.6129   22.8177 H       1  LIG   0.0789   0.1000 
32    C15      1.6390  -40.0610   21.0880 C.3     1  LIG  -0.1196  -0.2000 
33    H13      0.6832  -39.9283   21.5242 H       1  LIG   0.0807   0.1000 
34    H14      1.5292  -40.4423   20.1061 H       1  LIG   0.0733   0.1000 
@<TRIPOS>BOND
1     2     1     ar
2     3     2     1
3     4     2     ar
4     5     4     1
5     6     4     ar
6     7     6     ar
7     8     7     1
8     9     8     1
9     10    8     1
10    11    10    1
11    12    11    ar
12    13    12    1
13    14    12    ar
14    15    14    1
15    16    14    ar
16    17    16    1
17    18    16    ar
18    19    11    ar
19    19    18    ar
20    20    19    1
21    21    1     ar
22    21    7     ar
23    21    20    1
24    22    6     1
25    23    22    1
26    24    22    1
27    25    22    1
28    26    10    2
29    27    20    1
30    28    27    1
31    29    27    1
32    30    29    1
33    31    29    1
34    32    27    1
35    32    29    1
36    33    32    1
37    34    32    1
@<TRIPOS>SUBSTRUCTURE
1   LIG    1    
 
########## Name        : 1VRT.lig
########## Description : AM1BCC_CHARGES =  -0.0002 ORIGINAL_CHARGES =  -0.0000

@<TRIPOS>MOLECULE
1VRT.lig
34    37    1     0     0    
SMALL
USER_CHARGES
@<TRIPOS>ATOM
1     N1       4.0540  -36.9310   22.2210 N.ar    1  LIG  -0.6650  -0.6200 
2     C1       4.9660  -36.2380   22.9390 C.ar    1  LIG   0.3947   0.1600 
3     H1       6.0082  -36.2811   22.6707 H       1  LIG   0.0281   0.1500 
4     C2       4.6240  -35.4500   24.0360 C.ar    1  LIG  -0.2334  -0.1500 
5     H2       5.3884  -34.9151   24.5740 H       1  LIG   0.1480   0.1500 
6     C3       3.3050  -35.3690   24.4150 C.ar    1  LIG  -0.0698  -0.1435 
7     C4       2.3460  -36.0770   23.6860 C.ar    1  LIG  -0.0398   0.1170 
8     N2       0.9890  -36.0280   24.1030 N.am    1  LIG  -0.4596  -0.5470 
9     H3       0.7643  -35.9928   25.0860 H       1  LIG   0.3311   0.3700 
10    C5      -0.1450  -36.0180   23.4080 C.2     1  LIG   0.7361   0.5438 
11    C6      -0.1190  -36.0770   21.8860 C.ar    1  LIG  -0.2550   0.0862 
12    C7      -1.1230  -35.3990   21.1890 C.ar    1  LIG  -0.0321  -0.1500 
13    H4      -1.7552  -34.6955   21.7041 H       1  LIG   0.1623   0.1500 
14    C8      -1.2960  -35.6300   19.8690 C.ar    1  LIG  -0.2723  -0.1500 
15    H5      -2.0662  -35.1073   19.3273 H       1  LIG   0.1522   0.1500 
16    C9      -0.4670  -36.5450   19.2400 C.ar    1  LIG   0.4373   0.1600 
17    H6      -0.5947  -36.7554   18.1915 H       1  LIG   0.0280   0.1500 
18    N3       0.5220  -37.2120   19.8740 N.ar    1  LIG  -0.6893  -0.6200 
19    C10      0.7040  -36.9790   21.1800 C.ar    1  LIG   0.6480   0.4100 
20    N4       1.7670  -37.6730   21.8260 N.pl3   1  LIG  -0.6924  -0.3690 
21    C11      2.7540  -36.8570   22.5840 C.ar    1  LIG   0.5805   0.4100 
22    C12      2.9040  -34.5090   25.6010 C.3     1  LIG  -0.0620   0.1435 
23    H7       2.2235  -33.7630   25.2820 H       1  LIG   0.0570   0.0000 
24    H8       2.4436  -35.1154   26.3371 H       1  LIG   0.0495   0.0000 
25    H9       3.7654  -34.0491   26.0108 H       1  LIG   0.0519   0.0000 
26    O1      -1.2400  -35.9060   23.9770 O.2     1  LIG  -0.6361  -0.5700 
27    C13      2.3440  -38.7570   21.0360 C.3     1  LIG   0.1354   0.0690 
28    H10      3.1238  -38.3754   20.4296 H       1  LIG   0.0981   0.1000 
29    C14      2.9380  -39.8900   21.8010 C.3     1  LIG  -0.1181  -0.2000 
30    H11      3.8890  -40.1268   21.3997 H       1  LIG   0.0732   0.1000 
31    H12      3.0430  -39.6129   22.8177 H       1  LIG   0.0789   0.1000 
32    C15      1.6390  -40.0610   21.0880 C.3     1  LIG  -0.1196  -0.2000 
33    H13      0.6832  -39.9283   21.5242 H       1  LIG   0.0807   0.1000 
34    H14      1.5292  -40.4423   20.1061 H       1  LIG   0.0733   0.1000 
@<TRIPOS>BOND
1     2     1     ar
2     3     2     1
3     4     2     ar
4     5     4     1
5     6     4     ar
6     7     6     ar
7     8     7     1
8     9     8     1
9     10    8     1
10    11    10    1
11    12    11    ar
12    13    12    1
13    14    12    ar
14    15    14    1
15    16    14    ar
16    17    16    1
17    18    16    ar
18    19    11    ar
19    19    18    ar
20    20    19    1
21    21    1     ar
22    21    7     ar
23    21    20    1
24    22    6     1
25    23    22    1
26    24    22    1
27    25    22    1
28    26    10    2
29    27    20    1
30    28    27    1
31    29    27    1
32    30    29    1
33    31    29    1
34    32    27    1
35    32    29    1
36    33    32    1
37    34    32    1
@<TRIPOS>SUBSTRUCTURE
1   LIG    1    
 
########## Name        : 1VRT.lig
########## Description : AM1BCC_CHARGES =  -0.0002 ORIGINAL_CHARGES =  -0.0000

@<TRIPOS>MOLECULE
1VRT.lig
34    37    1     0     0    
SMALL
USER_CHARGES
@<TRIPOS>ATOM
1     N1       4.0540  -36.9310   22.2210 N.ar    1  LIG  -0.6650  -0.6200 
2     C1       4.9660  -36.2380   22.9390 C.ar    1  LIG   0.3947   0.1600 
3     H1       6.0082  -36.2811   22.6707 H       1  LIG   0.0281   0.1500 
4     C2       4.6240  -35.4500   24.0360 C.ar    1  LIG  -0.2334  -0.1500 
5     H2       5.3884  -34.9151   24.5740 H       1  LIG   0.1480   0.1500 
6     C3       3.3050  -35.3690   24.4150 C.ar    1  LIG  -0.0698  -0.1435 
7     C4       2.3460  -36.0770   23.6860 C.ar    1  LIG  -0.0398   0.1170 
8     N2       0.9890  -36.0280   24.1030 N.am    1  LIG  -0.4596  -0.5470 
9     H3       0.7643  -35.9928   25.0860 H       1  LIG   0.3311   0.3700 
10    C5      -0.1450  -36.0180   23.4080 C.2     1  LIG   0.7361   0.5438 
11    C6      -0.1190  -36.0770   21.8860 C.ar    1  LIG  -0.2550   0.0862 
12    C7      -1.1230  -35.3990   21.1890 C.ar    1  LIG  -0.0321  -0.1500 
13    H4      -1.7552  -34.6955   21.7041 H       1  LIG   0.1623   0.1500 
14    C8      -1.2960  -35.6300   19.8690 C.ar    1  LIG  -0.2723  -0.1500 
15    H5      -2.0662  -35.1073   19.3273 H       1  LIG   0.1522   0.1500 
16    C9      -0.4670  -36.5450   19.2400 C.ar    1  LIG   0.4373   0.1600 
17    H6      -0.5947  -36.7554   18.1915 H       1  LIG   0.0280   0.1500 
18    N3       0.5220  -37.2120   19.8740 N.ar    1  LIG  -0.6893  -0.6200 
19    C10      0.7040  -36.9790   21.1800 C.ar    1  LIG   0.6480   0.4100 
20    N4       1.7670  -37.6730   21.8260 N.pl3   1  LIG  -0.6924  -0.3690 
21    C11      2.7540  -36.8570   22.5840 C.ar    1  LIG   0.5805   0.4100 
22    C12      2.9040  -34.5090   25.6010 C.3     1  LIG  -0.0620   0.1435 
23    H7       2.2235  -33.7630   25.2820 H       1  LIG   0.0570   0.0000 
24    H8       2.4436  -35.1154   26.3371 H       1  LIG   0.0495   0.0000 
25    H9       3.7654  -34.0491   26.0108 H       1  LIG   0.0519   0.0000 
26    O1      -1.2400  -35.9060   23.9770 O.2     1  LIG  -0.6361  -0.5700 
27    C13      2.3440  -38.7570   21.0360 C.3     1  LIG   0.1354   0.0690 
28    H10      3.1238  -38.3754   20.4296 H       1  LIG   0.0981   0.1000 
29    C14      2.9380  -39.8900   21.8010 C.3     1  LIG  -0.1181  -0.2000 
30    H11      3.8890  -40.1268   21.3997 H       1  LIG   0.0732   0.1000 
31    H12      3.0430  -39.6129   22.8177 H       1  LIG   0.0789   0.1000 
32    C15      1.6390  -40.0610   21.0880 C.3     1  LIG  -0.1196  -0.2000 
33    H13      0.6832  -39.9283   21.5242 H       1  LIG   0.0807   0.1000 
34    H14      1.5292  -40.4423   20.1061 H       1  LIG   0.0733   0.1000 
@<TRIPOS>BOND
1     2     1     ar
2     3     2     1
3     4     2     ar
4     5     4     1
5     6     4     ar
6     7     6     ar
7     8     7     1
8     9     8     1
9     10    8     1
10    11    10    1
11    12    11    ar
12    13    12    1
13    14    12    ar
14    15    14    1
15    16    14    ar
16    17    16    1
17    18    16    ar
18    19    11    ar
19    19    18    ar
20    20    19    1
21    21    1     ar
22    21    7     ar
23    21    20    1
24    22    6     1
25    23    22    1
26    24    22    1
27    25    22    1
28    26    10    2
29    27    20    1
30    28    27    1
31    29    27    1
32    30    29    1
33    31    29    1
34    32    27    1
35    32    29    1
36    33    32    1
37    34    32    1
@<TRIPOS>SUBSTRUCTURE
1   LIG    1    
 
########## Name        : 1VRT.lig
########## Description : AM1BCC_CHARGES =  -0.0002 ORIGINAL_CHARGES =  -0.0000

@<TRIPOS>MOLECULE
1VRT.lig
34    37    1     0     0    
SMALL
USER_CHARGES
@<TRIPOS>ATOM
1     N1       4.0540  -36.9310   22.2210 N.ar    1  LIG  -0.6650  -0.6200 
2     C1       4.9660  -36.2380   22.9390 C.ar    1  LIG   0.3947   0.1600 
3     H1       6.0082  -36.2811   22.6707 H       1  LIG   0.0281   0.1500 
4     C2       4.6240  -35.4500   24.0360 C.ar    1  LIG  -0.2334  -0.1500 
5     H2       5.3884  -34.9151   24.5740 H       1  LIG   0.1480   0.1500 
6     C3       3.3050  -35.3690   24.4150 C.ar    1  LIG  -0.0698  -0.1435 
7     C4       2.3460  -36.0770   23.6860 C.ar    1  LIG  -0.0398   0.1170 
8     N2       0.9890  -36.0280   24.1030 N.am    1  LIG  -0.4596  -0.5470 
9     H3       0.7643  -35.9928   25.0860 H       1  LIG   0.3311   0.3700 
10    C5      -0.1450  -36.0180   23.4080 C.2     1  LIG   0.7361   0.5438 
11    C6      -0.1190  -36.0770   21.8860 C.ar    1  LIG  -0.2550   0.0862 
12    C7      -1.1230  -35.3990   21.1890 C.ar    1  LIG  -0.0321  -0.1500 
13    H4      -1.7552  -34.6955   21.7041 H       1  LIG   0.1623   0.1500 
14    C8      -1.2960  -35.6300   19.8690 C.ar    1  LIG  -0.2723  -0.1500 
15    H5      -2.0662  -35.1073   19.3273 H       1  LIG   0.1522   0.1500 
16    C9      -0.4670  -36.5450   19.2400 C.ar    1  LIG   0.4373   0.1600 
17    H6      -0.5947  -36.7554   18.1915 H       1  LIG   0.0280   0.1500 
18    N3       0.5220  -37.2120   19.8740 N.ar    1  LIG  -0.6893  -0.6200 
19    C10      0.7040  -36.9790   21.1800 C.ar    1  LIG   0.6480   0.4100 
20    N4       1.7670  -37.6730   21.8260 N.pl3   1  LIG  -0.6924  -0.3690 
21    C11      2.7540  -36.8570   22.5840 C.ar    1  LIG   0.5805   0.4100 
22    C12      2.9040  -34.5090   25.6010 C.3     1  LIG  -0.0620   0.1435 
23    H7       2.2235  -33.7630   25.2820 H       1  LIG   0.0570   0.0000 
24    H8       2.4436  -35.1154   26.3371 H       1  LIG   0.0495   0.0000 
25    H9       3.7654  -34.0491   26.0108 H       1  LIG   0.0519   0.0000 
26    O1      -1.2400  -35.9060   23.9770 O.2     1  LIG  -0.6361  -0.5700 
27    C13      2.3440  -38.7570   21.0360 C.3     1  LIG   0.1354   0.0690 
28    H10      3.1238  -38.3754   20.4296 H       1  LIG   0.0981   0.1000 
29    C14      2.9380  -39.8900   21.8010 C.3     1  LIG  -0.1181  -0.2000 
30    H11      3.8890  -40.1268   21.3997 H       1  LIG   0.0732   0.1000 
31    H12      3.0430  -39.6129   22.8177 H       1  LIG   0.0789   0.1000 
32    C15      1.6390  -40.0610   21.0880 C.3     1  LIG  -0.1196  -0.2000 
33    H13      0.6832  -39.9283   21.5242 H       1  LIG   0.0807   0.1000 
34    H14      1.5292  -40.4423   20.1061 H       1  LIG   0.0733   0.1000 
@<TRIPOS>BOND
1     2     1     ar
2     3     2     1
3     4     2     ar
4     5     4     1
5     6     4     ar
6     7     6     ar
7     8     7     1
8     9     8     1
9     10    8     1
10    11    10    1
11    12    11    ar
12    13    12    1
13    14    12    ar
14    15    14    1
15    16    14    ar
16    17    16    1
17    18    16    ar
18    19    11    ar
19    19    18    ar
20    20    19    1
21    21    1     ar
22    21    7     ar
23    21    20    1
24    22    6     1
25    23    22    1
26    24    22    1
27    25    22    1
28    26    10    2
29    27    20    1
30    28    27    1
31    29    27    1
32    30    29    1
33    31    29    1
34    32    27    1
35    32    29    1
36    33    32    1
37    34    32    1
@<TRIPOS>SUBSTRUCTURE
1   LIG    1    
 
########## Name        : 1VRT.lig
########## Description : AM1BCC_CHARGES =  -0.0002 ORIGINAL_CHARGES =  -0.0000

@<TRIPOS>MOLECULE
1VRT.lig
34    37    1     0     0    
SMALL
USER_CHARGES
@<TRIPOS>ATOM
1     N1       4.0540  -36.9310   22.2210 N.ar    1  LIG  -0.6650  -0.6200 
2     C1       4.9660  -36.2380   22.9390 C.ar    1  LIG   0.3947   0.1600 
3     H1       6.0082  -36.2811   22.6707 H       1  LIG   0.0281   0.1500 
4     C2       4.6240  -35.4500   24.0360 C.ar    1  LIG  -0.2334  -0.1500 
5     H2       5.3884  -34.9151   24.5740 H       1  LIG   0.1480   0.1500 
6     C3       3.3050  -35.3690   24.4150 C.ar    1  LIG  -0.0698  -0.1435 
7     C4       2.3460  -36.0770   23.6860 C.ar    1  LIG  -0.0398   0.1170 
8     N2       0.9890  -36.0280   24.1030 N.am    1  LIG  -0.4596  -0.5470 
9     H3       0.7643  -35.9928   25.0860 H       1  LIG   0.3311   0.3700 
10    C5      -0.1450  -36.0180   23.4080 C.2     1  LIG   0.7361   0.5438 
11    C6      -0.1190  -36.0770   21.8860 C.ar    1  LIG  -0.2550   0.0862 
12    C7      -1.1230  -35.3990   21.1890 C.ar    1  LIG  -0.0321  -0.1500 
13    H4      -1.7552  -34.6955   21.7041 H       1  LIG   0.1623   0.1500 
14    C8      -1.2960  -35.6300   19.8690 C.ar    1  LIG  -0.2723  -0.1500 
15    H5      -2.0662  -35.1073   19.3273 H       1  LIG   0.1522   0.1500 
16    C9      -0.4670  -36.5450   19.2400 C.ar    1  LIG   0.4373   0.1600 
17    H6      -0.5947  -36.7554   18.1915 H       1  LIG   0.0280   0.1500 
18    N3       0.5220  -37.2120   19.8740 N.ar    1  LIG  -0.6893  -0.6200 
19    C10      0.7040  -36.9790   21.1800 C.ar    1  LIG   0.6480   0.4100 
20    N4       1.7670  -37.6730   21.8260 N.pl3   1  LIG  -0.6924  -0.3690 
21    C11      2.7540  -36.8570   22.5840 C.ar    1  LIG   0.5805   0.4100 
22    C12      2.9040  -34.5090   25.6010 C.3     1  LIG  -0.0620   0.1435 
23    H7       2.2235  -33.7630   25.2820 H       1  LIG   0.0570   0.0000 
24    H8       2.4436  -35.1154   26.3371 H       1  LIG   0.0495   0.0000 
25    H9       3.7654  -34.0491   26.0108 H       1  LIG   0.0519   0.0000 
26    O1      -1.2400  -35.9060   23.9770 O.2     1  LIG  -0.6361  -0.5700 
27    C13      2.3440  -38.7570   21.0360 C.3     1  LIG   0.1354   0.0690 
28    H10      3.1238  -38.3754   20.4296 H       1  LIG   0.0981   0.1000 
29    C14      2.9380  -39.8900   21.8010 C.3     1  LIG  -0.1181  -0.2000 
30    H11      3.8890  -40.1268   21.3997 H       1  LIG   0.0732   0.1000 
31    H12      3.0430  -39.6129   22.8177 H       1  LIG   0.0789   0.1000 
32    C15      1.6390  -40.0610   21.0880 C.3     1  LIG  -0.1196  -0.2000 
33    H13      0.6832  -39.9283   21.5242 H       1  LIG   0.0807   0.1000 
34    H14      1.5292  -40.4423   20.1061 H       1  LIG   0.0733   0.1000 
@<TRIPOS>BOND
1     2     1     ar
2     3     2     1
3     4     2     ar
4     5     4     1
5     6     4     ar
6     7     6     ar
7     8     7     1
8     9     8     1
9     10    8     1
10    11    10    1
11    12    11    ar
12    13    12    1
13    14    12    ar
14    15    14    1
15    16    14    ar
16    17    16    1
17    18    16    ar
18    19    11    ar
19    19    18    ar
20    20    19    1
21    21    1     ar
22    21    7     ar
23    21    20    1
24    22    6     1
25    23    22    1
26    24    22    1
27    25    22    1
28    26    10    2
29    27    20    1
30    28    27    1
31    29    27    1
32    30    29    1
33    31    29    1
34    32    27    1
35    32    29    1
36    33    32    1
37    34    32    1
@<TRIPOS>SUBSTRUCTURE
1   LIG    1    
 
########## Name        : 1VRT.lig
########## Description : AM1BCC_CHARGES =  -0.0002 ORIGINAL_CHARGES =  -0.0000

@<TRIPOS>MOLECULE
1VRT.lig
34    37    1     0     0    
SMALL
USER_CHARGES
@<TRIPOS>ATOM
1     N1       4.0540  -36.9310   22.2210 N.ar    1  LIG  -0.6650  -0.6200 
2     C1       4.9660  -36.2380   22.9390 C.ar    1  LIG   0.3947   0.1600 
3     H1       6.0082  -36.2811   22.6707 H       1  LIG   0.0281   0.1500 
4     C2       4.6240  -35.4500   24.0360 C.ar    1  LIG  -0.2334  -0.1500 
5     H2       5.3884  -34.9151   24.5740 H       1  LIG   0.1480   0.1500 
6     C3       3.3050  -35.3690   24.4150 C.ar    1  LIG  -0.0698  -0.1435 
7     C4       2.3460  -36.0770   23.6860 C.ar    1  LIG  -0.0398   0.1170 
8     N2       0.9890  -36.0280   24.1030 N.am    1  LIG  -0.4596  -0.5470 
9     H3       0.7643  -35.9928   25.0860 H       1  LIG   0.3311   0.3700 
10    C5      -0.1450  -36.0180   23.4080 C.2     1  LIG   0.7361   0.5438 
11    C6      -0.1190  -36.0770   21.8860 C.ar    1  LIG  -0.2550   0.0862 
12    C7      -1.1230  -35.3990   21.1890 C.ar    1  LIG  -0.0321  -0.1500 
13    H4      -1.7552  -34.6955   21.7041 H       1  LIG   0.1623   0.1500 
14    C8      -1.2960  -35.6300   19.8690 C.ar    1  LIG  -0.2723  -0.1500 
15    H5      -2.0662  -35.1073   19.3273 H       1  LIG   0.1522   0.1500 
16    C9      -0.4670  -36.5450   19.2400 C.ar    1  LIG   0.4373   0.1600 
17    H6      -0.5947  -36.7554   18.1915 H       1  LIG   0.0280   0.1500 
18    N3       0.5220  -37.2120   19.8740 N.ar    1  LIG  -0.6893  -0.6200 
19    C10      0.7040  -36.9790   21.1800 C.ar    1  LIG   0.6480   0.4100 
20    N4       1.7670  -37.6730   21.8260 N.pl3   1  LIG  -0.6924  -0.3690 
21    C11      2.7540  -36.8570   22.5840 C.ar    1  LIG   0.5805   0.4100 
22    C12      2.9040  -34.5090   25.6010 C.3     1  LIG  -0.0620   0.1435 
23    H7       2.2235  -33.7630   25.2820 H       1  LIG   0.0570   0.0000 
24    H8       2.4436  -35.1154   26.3371 H       1  LIG   0.0495   0.0000 
25    H9       3.7654  -34.0491   26.0108 H       1  LIG   0.0519   0.0000 
26    O1      -1.2400  -35.9060   23.9770 O.2     1  LIG  -0.6361  -0.5700 
27    C13      2.3440  -38.7570   21.0360 C.3     1  LIG   0.1354   0.0690 
28    H10      3.1238  -38.3754   20.4296 H       1  LIG   0.0981   0.1000 
29    C14      2.9380  -39.8900   21.8010 C.3     1  LIG  -0.1181  -0.2000 
30    H11      3.8890  -40.1268   21.3997 H       1  LIG   0.0732   0.1000 
31    H12      3.0430  -39.6129   22.8177 H       1  LIG   0.0789   0.1000 
32    C15      1.6390  -40.0610   21.0880 C.3     1  LIG  -0.1196  -0.2000 
33    H13      0.6832  -39.9283   21.5242 H       1  LIG   0.0807   0.1000 
34    H14      1.5292  -40.4423   20.1061 H       1  LIG   0.0733   0.1000 
@<TRIPOS>BOND
1     2     1     ar
2     3     2     1
3     4     2     ar
4     5     4     1
5     6     4     ar
6     7     6     ar
7     8     7     1
8     9     8     1
9     10    8     1
10    11    10    1
11    12    11    ar
12    13    12    1
13    14    12    ar
14    15    14    1
15    16    14    ar
16    17    16    1
17    18    16    ar
18    19    11    ar
19    19    18    ar
20    20    19    1
21    21    1     ar
22    21    7     ar
23    21    20    1
24    22    6     1
25    23    22    1
26    24    22    1
27    25    22    1
28    26    10    2
29    27    20    1
30    28    27    1
31    29    27    1
32    30    29    1
33    31    29    1
34    32    27    1
35    32    29    1
36    33    32    1
37    34    32    1
@<TRIPOS>SUBSTRUCTURE
1   LIG    1    
 
########## Name        : 1VRT.lig
########## Description : AM1BCC_CHARGES =  -0.0002 ORIGINAL_CHARGES =  -0.0000

@<TRIPOS>MOLECULE
1VRT.lig
34    37    1     0     0    
SMALL
USER_CHARGES
@<TRIPOS>ATOM
1     N1       4.0540  -36.9310   22.2210 N.ar    1  LIG  -0.6650  -0.6200 
2     C1       4.9660  -36.2380   22.9390 C.ar    1  LIG   0.3947   0.1600 
3     H1       6.0082  -36.2811   22.6707 H       1  LIG   0.0281   0.1500 
4     C2       4.6240  -35.4500   24.0360 C.ar    1  LIG  -0.2334  -0.1500 
5     H2       5.3884  -34.9151   24.5740 H       1  LIG   0.1480   0.1500 
6     C3       3.3050  -35.3690   24.4150 C.ar    1  LIG  -0.0698  -0.1435 
7     C4       2.3460  -36.0770   23.6860 C.ar    1  LIG  -0.0398   0.1170 
8     N2       0.9890  -36.0280   24.1030 N.am    1  LIG  -0.4596  -0.5470 
9     H3       0.7643  -35.9928   25.0860 H       1  LIG   0.3311   0.3700 
10    C5      -0.1450  -36.0180   23.4080 C.2     1  LIG   0.7361   0.5438 
11    C6      -0.1190  -36.0770   21.8860 C.ar    1  LIG  -0.2550   0.0862 
12    C7      -1.1230  -35.3990   21.1890 C.ar    1  LIG  -0.0321  -0.1500 
13    H4      -1.7552  -34.6955   21.7041 H       1  LIG   0.1623   0.1500 
14    C8      -1.2960  -35.6300   19.8690 C.ar    1  LIG  -0.2723  -0.1500 
15    H5      -2.0662  -35.1073   19.3273 H       1  LIG   0.1522   0.1500 
16    C9      -0.4670  -36.5450   19.2400 C.ar    1  LIG   0.4373   0.1600 
17    H6      -0.5947  -36.7554   18.1915 H       1  LIG   0.0280   0.1500 
18    N3       0.5220  -37.2120   19.8740 N.ar    1  LIG  -0.6893  -0.6200 
19    C10      0.7040  -36.9790   21.1800 C.ar    1  LIG   0.6480   0.4100 
20    N4       1.7670  -37.6730   21.8260 N.pl3   1  LIG  -0.6924  -0.3690 
21    C11      2.7540  -36.8570   22.5840 C.ar    1  LIG   0.5805   0.4100 
22    C12      2.9040  -34.5090   25.6010 C.3     1  LIG  -0.0620   0.1435 
23    H7       2.2235  -33.7630   25.2820 H       1  LIG   0.0570   0.0000 
24    H8       2.4436  -35.1154   26.3371 H       1  LIG   0.0495   0.0000 
25    H9       3.7654  -34.0491   26.0108 H       1  LIG   0.0519   0.0000 
26    O1      -1.2400  -35.9060   23.9770 O.2     1  LIG  -0.6361  -0.5700 
27    C13      2.3440  -38.7570   21.0360 C.3     1  LIG   0.1354   0.0690 
28    H10      3.1238  -38.3754   20.4296 H       1  LIG   0.0981   0.1000 
29    C14      2.9380  -39.8900   21.8010 C.3     1  LIG  -0.1181  -0.2000 
30    H11      3.8890  -40.1268   21.3997 H       1  LIG   0.0732   0.1000 
31    H12      3.0430  -39.6129   22.8177 H       1  LIG   0.0789   0.1000 
32    C15      1.6390  -40.0610   21.0880 C.3     1  LIG  -0.1196  -0.2000 
33    H13      0.6832  -39.9283   21.5242 H       1  LIG   0.0807   0.1000 
34    H14      1.5292  -40.4423   20.1061 H       1  LIG   0.0733   0.1000 
@<TRIPOS>BOND
1     2     1     ar
2     3     2     1
3     4     2     ar
4     5     4     1
5     6     4     ar
6     7     6     ar
7     8     7     1
8     9     8     1
9     10    8     1
10    11    10    1
11    12    11    ar
12    13    12    1
13    14    12    ar
14    15    14    1
15    16    14    ar
16    17    16    1
17    18    16    ar
18    19    11    ar
19    19    18    ar
20    20    19    1
21    21    1     ar
22    21    7     ar
23    21    20    1
24    22    6     1
25    23    22    1
26    24    22    1
27    25    22    1
28    26    10    2
29    27    20    1
30    28    27    1
31    29    27    1
32    30    29    1
33    31    29    1
34    32    27    1
35    32    29    1
36    33    32    1
37    34    32    1
@<TRIPOS>SUBSTRUCTURE
1   LIG    1    
 
########## Name        : 1VRT.lig
########## Description : AM1BCC_CHARGES =  -0.0002 ORIGINAL_CHARGES =  -0.0000

@<TRIPOS>MOLECULE
1VRT.lig
34    37    1     0     0    
SMALL
USER_CHARGES
@<TRIPOS>ATOM
1     N1       4.0540  -36.9310   22.2210 N.ar    1  LIG  -0.6650  -0.6200 
2     C1       4.9660  -36.2380   22.9390 C.ar    1  LIG   0.3947   0.1600 
3     H1       6.0082  -36.2811   22.6707 H       1  LIG   0.0281   0.1500 
4     C2       4.6240  -35.4500   24.0360 C.ar    1  LIG  -0.2334  -0.1500 
5     H2       5.3884  -34.9151   24.5740 H       1  LIG   0.1480   0.1500 
6     C3       3.3050  -35.3690   24.4150 C.ar    1  LIG  -0.0698  -0.1435 
7     C4       2.3460  -36.0770   23.6860 C.ar    1  LIG  -0.0398   0.1170 
8     N2       0.9890  -36.0280   24.1030 N.am    1  LIG  -0.4596  -0.5470 
9     H3       0.7643  -35.9928   25.0860 H       1  LIG   0.3311   0.3700 
10    C5      -0.1450  -36.0180   23.4080 C.2     1  LIG   0.7361   0.5438 
11    C6      -0.1190  -36.0770   21.8860 C.ar    1  LIG  -0.2550   0.0862 
12    C7      -1.1230  -35.3990   21.1890 C.ar    1  LIG  -0.0321  -0.1500 
13    H4      -1.7552  -34.6955   21.7041 H       1  LIG   0.1623   0.1500 
14    C8      -1.2960  -35.6300   19.8690 C.ar    1  LIG  -0.2723  -0.1500 
15    H5      -2.0662  -35.1073   19.3273 H       1  LIG   0.1522   0.1500 
16    C9      -0.4670  -36.5450   19.2400 C.ar    1  LIG   0.4373   0.1600 
17    H6      -0.5947  -36.7554   18.1915 H       1  LIG   0.0280   0.1500 
18    N3       0.5220  -37.2120   19.8740 N.ar    1  LIG  -0.6893  -0.6200 
19    C10      0.7040  -36.9790   21.1800 C.ar    1  LIG   0.6480   0.4100 
20    N4       1.7670  -37.6730   21.8260 N.pl3   1  LIG  -0.6924  -0.3690 
21    C11      2.7540  -36.8570   22.5840 C.ar    1  LIG   0.5805   0.4100 
22    C12      2.9040  -34.5090   25.6010 C.3     1  LIG  -0.0620   0.1435 
23    H7       2.2235  -33.7630   25.2820 H       1  LIG   0.0570   0.0000 
24    H8       2.4436  -35.1154   26.3371 H       1  LIG   0.0495   0.0000 
25    H9       3.7654  -34.0491   26.0108 H       1  LIG   0.0519   0.0000 
26    O1      -1.2400  -35.9060   23.9770 O.2     1  LIG  -0.6361  -0.5700 
27    C13      2.3440  -38.7570   21.0360 C.3     1  LIG   0.1354   0.0690 
28    H10      3.1238  -38.3754   20.4296 H       1  LIG   0.0981   0.1000 
29    C14      2.9380  -39.8900   21.8010 C.3     1  LIG  -0.1181  -0.2000 
30    H11      3.8890  -40.1268   21.3997 H       1  LIG   0.0732   0.1000 
31    H12      3.0430  -39.6129   22.8177 H       1  LIG   0.0789   0.1000 
32    C15      1.6390  -40.0610   21.0880 C.3     1  LIG  -0.1196  -0.2000 
33    H13      0.6832  -39.9283   21.5242 H       1  LIG   0.0807   0.1000 
34    H14      1.5292  -40.4423   20.1061 H       1  LIG   0.0733   0.1000 
@<TRIPOS>BOND
1     2     1     ar
2     3     2     1
3     4     2     ar
4     5     4     1
5     6     4     ar
6     7     6     ar
7     8     7     1
8     9     8     1
9     10    8     1
10    11    10    1
11    12    11    ar
12    13    12    1
13    14    12    ar
14    15    14    1
15    16    14    ar
16    17    16    1
17    18    16    ar
18    19    11    ar
19    19    18    ar
20    20    19    1
21    21    1     ar
22    21    7     ar
23    21    20    1
24    22    6     1
25    23    22    1
26    24    22    1
27    25    22    1
28    26    10    2
29    27    20    1
30    28    27    1
31    29    27    1
32    30    29    1
33    31    29    1
34    32    27    1
35    32    29    1
36    33    32    1
37    34    32    1
@<TRIPOS>SUBSTRUCTURE
1   LIG    1    
 
########## Name        : 1VRT.lig
########## Description : AM1BCC_CHARGES =  -0.0002 ORIGINAL_CHARGES =  -0.0000

@<TRIPOS>MOLECULE
1VRT.lig
34    37    1     0     0    
SMALL
USER_CHARGES
@<TRIPOS>ATOM
1     N1       4.0540  -36.9310   22.2210 N.ar    1  LIG  -0.6650  -0.6200 
2     C1       4.9660  -36.2380   22.9390 C.ar    1  LIG   0.3947   0.1600 
3     H1       6.0082  -36.2811   22.6707 H       1  LIG   0.0281   0.1500 
4     C2       4.6240  -35.4500   24.0360 C.ar    1  LIG  -0.2334  -0.1500 
5     H2       5.3884  -34.9151   24.5740 H       1  LIG   0.1480   0.1500 
6     C3       3.3050  -35.3690   24.4150 C.ar    1  LIG  -0.0698  -0.1435 
7     C4       2.3460  -36.0770   23.6860 C.ar    1  LIG  -0.0398   0.1170 
8     N2       0.9890  -36.0280   24.1030 N.am    1  LIG  -0.4596  -0.5470 
9     H3       0.7643  -35.9928   25.0860 H       1  LIG   0.3311   0.3700 
10    C5      -0.1450  -36.0180   23.4080 C.2     1  LIG   0.7361   0.5438 
11    C6      -0.1190  -36.0770   21.8860 C.ar    1  LIG  -0.2550   0.0862 
12    C7      -1.1230  -35.3990   21.1890 C.ar    1  LIG  -0.0321  -0.1500 
13    H4      -1.7552  -34.6955   21.7041 H       1  LIG   0.1623   0.1500 
14    C8      -1.2960  -35.6300   19.8690 C.ar    1  LIG  -0.2723  -0.1500 
15    H5      -2.0662  -35.1073   19.3273 H       1  LIG   0.1522   0.1500 
16    C9      -0.4670  -36.5450   19.2400 C.ar    1  LIG   0.4373   0.1600 
17    H6      -0.5947  -36.7554   18.1915 H       1  LIG   0.0280   0.1500 
18    N3       0.5220  -37.2120   19.8740 N.ar    1  LIG  -0.6893  -0.6200 
19    C10      0.7040  -36.9790   21.1800 C.ar    1  LIG   0.6480   0.4100 
20    N4       1.7670  -37.6730   21.8260 N.pl3   1  LIG  -0.6924  -0.3690 
21    C11      2.7540  -36.8570   22.5840 C.ar    1  LIG   0.5805   0.4100 
22    C12      2.9040  -34.5090   25.6010 C.3     1  LIG  -0.0620   0.1435 
23    H7       2.2235  -33.7630   25.2820 H       1  LIG   0.0570   0.0000 
24    H8       2.4436  -35.1154   26.3371 H       1  LIG   0.0495   0.0000 
25    H9       3.7654  -34.0491   26.0108 H       1  LIG   0.0519   0.0000 
26    O1      -1.2400  -35.9060   23.9770 O.2     1  LIG  -0.6361  -0.5700 
27    C13      2.3440  -38.7570   21.0360 C.3     1  LIG   0.1354   0.0690 
28    H10      3.1238  -38.3754   20.4296 H       1  LIG   0.0981   0.1000 
29    C14      2.9380  -39.8900   21.8010 C.3     1  LIG  -0.1181  -0.2000 
30    H11      3.8890  -40.1268   21.3997 H       1  LIG   0.0732   0.1000 
31    H12      3.0430  -39.6129   22.8177 H       1  LIG   0.0789   0.1000 
32    C15      1.6390  -40.0610   21.0880 C.3     1  LIG  -0.1196  -0.2000 
33    H13      0.6832  -39.9283   21.5242 H       1  LIG   0.0807   0.1000 
34    H14      1.5292  -40.4423   20.1061 H       1  LIG   0.0733   0.1000 
@<TRIPOS>BOND
1     2     1     ar
2     3     2     1
3     4     2     ar
4     5     4     1
5     6     4     ar
6     7     6     ar
7     8     7     1
8     9     8     1
9     10    8     1
10    11    10    1
11    12    11    ar
12    13    12    1
13    14    12    ar
14    15    14    1
15    16    14    ar
16    17    16    1
17    18    16    ar
18    19    11    ar
19    19    18    ar
20    20    19    1
21    21    1     ar
22    21    7     ar
23    21    20    1
24    22    6     1
25    23    22    1
26    24    22    1
27    25    22    1
28    26    10    2
29    27    20    1
30    28    27    1
31    29    27    1
32    30    29    1
33    31    29    1
34    32    27    1
35    32    29    1
36    33    32    1
37    34    32    1
@<TRIPOS>SUBSTRUCTURE
1   LIG    1    
 
########## Name        : 1VRT.lig
########## Description : AM1BCC_CHARGES =  -0.0002 ORIGINAL_CHARGES =  -0.0000

@<TRIPOS>MOLECULE
1VRT.lig
34    37    1     0     0    
SMALL
USER_CHARGES
@<TRIPOS>ATOM
1     N1       4.0540  -36.9310   22.2210 N.ar    1  LIG  -0.6650  -0.6200 
2     C1       4.9660  -36.2380   22.9390 C.ar    1  LIG   0.3947   0.1600 
3     H1       6.0082  -36.2811   22.6707 H       1  LIG   0.0281   0.1500 
4     C2       4.6240  -35.4500   24.0360 C.ar    1  LIG  -0.2334  -0.1500 
5     H2       5.3884  -34.9151   24.5740 H       1  LIG   0.1480   0.1500 
6     C3       3.3050  -35.3690   24.4150 C.ar    1  LIG  -0.0698  -0.1435 
7     C4       2.3460  -36.0770   23.6860 C.ar    1  LIG  -0.0398   0.1170 
8     N2       0.9890  -36.0280   24.1030 N.am    1  LIG  -0.4596  -0.5470 
9     H3       0.7643  -35.9928   25.0860 H       1  LIG   0.3311   0.3700 
10    C5      -0.1450  -36.0180   23.4080 C.2     1  LIG   0.7361   0.5438 
11    C6      -0.1190  -36.0770   21.8860 C.ar    1  LIG  -0.2550   0.0862 
12    C7      -1.1230  -35.3990   21.1890 C.ar    1  LIG  -0.0321  -0.1500 
13    H4      -1.7552  -34.6955   21.7041 H       1  LIG   0.1623   0.1500 
14    C8      -1.2960  -35.6300   19.8690 C.ar    1  LIG  -0.2723  -0.1500 
15    H5      -2.0662  -35.1073   19.3273 H       1  LIG   0.1522   0.1500 
16    C9      -0.4670  -36.5450   19.2400 C.ar    1  LIG   0.4373   0.1600 
17    H6      -0.5947  -36.7554   18.1915 H       1  LIG   0.0280   0.1500 
18    N3       0.5220  -37.2120   19.8740 N.ar    1  LIG  -0.6893  -0.6200 
19    C10      0.7040  -36.9790   21.1800 C.ar    1  LIG   0.6480   0.4100 
20    N4       1.7670  -37.6730   21.8260 N.pl3   1  LIG  -0.6924  -0.3690 
21    C11      2.7540  -36.8570   22.5840 C.ar    1  LIG   0.5805   0.4100 
22    C12      2.9040  -34.5090   25.6010 C.3     1  LIG  -0.0620   0.1435 
23    H7       2.2235  -33.7630   25.2820 H       1  LIG   0.0570   0.0000 
24    H8       2.4436  -35.1154   26.3371 H       1  LIG   0.0495   0.0000 
25    H9       3.7654  -34.0491   26.0108 H       1  LIG   0.0519   0.0000 
26    O1      -1.2400  -35.9060   23.9770 O.2     1  LIG  -0.6361  -0.5700 
27    C13      2.3440  -38.7570   21.0360 C.3     1  LIG   0.1354   0.0690 
28    H10      3.1238  -38.3754   20.4296 H       1  LIG   0.0981   0.1000 
29    C14      2.9380  -39.8900   21.8010 C.3     1  LIG  -0.1181  -0.2000 
30    H11      3.8890  -40.1268   21.3997 H       1  LIG   0.0732   0.1000 
31    H12      3.0430  -39.6129   22.8177 H       1  LIG   0.0789   0.1000 
32    C15      1.6390  -40.0610   21.0880 C.3     1  LIG  -0.1196  -0.2000 
33    H13      0.6832  -39.9283   21.5242 H       1  LIG   0.0807   0.1000 
34    H14      1.5292  -40.4423   20.1061 H       1  LIG   0.0733   0.1000 
@<TRIPOS>BOND
1     2     1     ar
2     3     2     1
3     4     2     ar
4     5     4     1
5     6     4     ar
6     7     6     ar
7     8     7     1
8     9     8     1
9     10    8     1
10    11    10    1
11    12    11    ar
12    13    12    1
13    14    12    ar
14    15    14    1
15    16    14    ar
16    17    16    1
17    18    16    ar
18    19    11    ar
19    19    18    ar
20    20    19    1
21    21    1     ar
22    21    7     ar
23    21    20    1
24    22    6     1
25    23    22    1
26    24    22    1
27    25    22    1
28    26    10    2
29    27    20    1
30    28    27    1
31    29    27    1
32    30    29    1
33    31    29    1
34    32    27    1
35    32    29    1
36    33    32    1
37    34    32    1
@<TRIPOS>SUBSTRUCTURE
1   LIG    1    
 
########## Name        : 1VRT.lig
########## Description : AM1BCC_CHARGES =  -0.0002 ORIGINAL_CHARGES =  -0.0000

@<TRIPOS>MOLECULE
1VRT.lig
34    37    1     0     0    
SMALL
USER_CHARGES
@<TRIPOS>ATOM
1     N1       4.0540  -36.9310   22.2210 N.ar    1  LIG  -0.6650  -0.6200 
2     C1       4.9660  -36.2380   22.9390 C.ar    1  LIG   0.3947   0.1600 
3     H1       6.0082  -36.2811   22.6707 H       1  LIG   0.0281   0.1500 
4     C2       4.6240  -35.4500   24.0360 C.ar    1  LIG  -0.2334  -0.1500 
5     H2       5.3884  -34.9151   24.5740 H       1  LIG   0.1480   0.1500 
6     C3       3.3050  -35.3690   24.4150 C.ar    1  LIG  -0.0698  -0.1435 
7     C4       2.3460  -36.0770   23.6860 C.ar    1  LIG  -0.0398   0.1170 
8     N2       0.9890  -36.0280   24.1030 N.am    1  LIG  -0.4596  -0.5470 
9     H3       0.7643  -35.9928   25.0860 H       1  LIG   0.3311   0.3700 
10    C5      -0.1450  -36.0180   23.4080 C.2     1  LIG   0.7361   0.5438 
11    C6      -0.1190  -36.0770   21.8860 C.ar    1  LIG  -0.2550   0.0862 
12    C7      -1.1230  -35.3990   21.1890 C.ar    1  LIG  -0.0321  -0.1500 
13    H4      -1.7552  -34.6955   21.7041 H       1  LIG   0.1623   0.1500 
14    C8      -1.2960  -35.6300   19.8690 C.ar    1  LIG  -0.2723  -0.1500 
15    H5      -2.0662  -35.1073   19.3273 H       1  LIG   0.1522   0.1500 
16    C9      -0.4670  -36.5450   19.2400 C.ar    1  LIG   0.4373   0.1600 
17    H6      -0.5947  -36.7554   18.1915 H       1  LIG   0.0280   0.1500 
18    N3       0.5220  -37.2120   19.8740 N.ar    1  LIG  -0.6893  -0.6200 
19    C10      0.7040  -36.9790   21.1800 C.ar    1  LIG   0.6480   0.4100 
20    N4       1.7670  -37.6730   21.8260 N.pl3   1  LIG  -0.6924  -0.3690 
21    C11      2.7540  -36.8570   22.5840 C.ar    1  LIG   0.5805   0.4100 
22    C12      2.9040  -34.5090   25.6010 C.3     1  LIG  -0.0620   0.1435 
23    H7       2.2235  -33.7630   25.2820 H       1  LIG   0.0570   0.0000 
24    H8       2.4436  -35.1154   26.3371 H       1  LIG   0.0495   0.0000 
25    H9       3.7654  -34.0491   26.0108 H       1  LIG   0.0519   0.0000 
26    O1      -1.2400  -35.9060   23.9770 O.2     1  LIG  -0.6361  -0.5700 
27    C13      2.3440  -38.7570   21.0360 C.3     1  LIG   0.1354   0.0690 
28    H10      3.1238  -38.3754   20.4296 H       1  LIG   0.0981   0.1000 
29    C14      2.9380  -39.8900   21.8010 C.3     1  LIG  -0.1181  -0.2000 
30    H11      3.8890  -40.1268   21.3997 H       1  LIG   0.0732   0.1000 
31    H12      3.0430  -39.6129   22.8177 H       1  LIG   0.0789   0.1000 
32    C15      1.6390  -40.0610   21.0880 C.3     1  LIG  -0.1196  -0.2000 
33    H13      0.6832  -39.9283   21.5242 H       1  LIG   0.0807   0.1000 
34    H14      1.5292  -40.4423   20.1061 H       1  LIG   0.0733   0.1000 
@<TRIPOS>BOND
1     2     1     ar
2     3     2     1
3     4     2     ar
4     5     4     1
5     6     4     ar
6     7     6     ar
7     8     7     1
8     9     8     1
9     10    8     1
10    11    10    1
11    12    11    ar
12    13    12    1
13    14    12    ar
14    15    14    1
15    16    14    ar
16    17    16    1
17    18    16    ar
18    19    11    ar
19    19    18    ar
20    20    19    1
21    21    1     ar
22    21    7     ar
23    21    20    1
24    22    6     1
25    23    22    1
26    24    22    1
27    25    22    1
28    26    10    2
29    27    20    1
30    28    27    1
31    29    27    1
32    30    29    1
33    31    29    1
34    32    27    1
35    32    29    1
36    33    32    1
37    34    32    1
@<TRIPOS>SUBSTRUCTURE
1   LIG    1    
 
########## Name        : 1VRT.lig
########## Description : AM1BCC_CHARGES =  -0.0002 ORIGINAL_CHARGES =  -0.0000

@<TRIPOS>MOLECULE
1VRT.lig
34    37    1     0     0    
SMALL
USER_CHARGES
@<TRIPOS>ATOM
1     N1       4.0540  -36.9310   22.2210 N.ar    1  LIG  -0.6650  -0.6200 
2     C1       4.9660  -36.2380   22.9390 C.ar    1  LIG   0.3947   0.1600 
3     H1       6.0082  -36.2811   22.6707 H       1  LIG   0.0281   0.1500 
4     C2       4.6240  -35.4500   24.0360 C.ar    1  LIG  -0.2334  -0.1500 
5     H2       5.3884  -34.9151   24.5740 H       1  LIG   0.1480   0.1500 
6     C3       3.3050  -35.3690   24.4150 C.ar    1  LIG  -0.0698  -0.1435 
7     C4       2.3460  -36.0770   23.6860 C.ar    1  LIG  -0.0398   0.1170 
8     N2       0.9890  -36.0280   24.1030 N.am    1  LIG  -0.4596  -0.5470 
9     H3       0.7643  -35.9928   25.0860 H       1  LIG   0.3311   0.3700 
10    C5      -0.1450  -36.0180   23.4080 C.2     1  LIG   0.7361   0.5438 
11    C6      -0.1190  -36.0770   21.8860 C.ar    1  LIG  -0.2550   0.0862 
12    C7      -1.1230  -35.3990   21.1890 C.ar    1  LIG  -0.0321  -0.1500 
13    H4      -1.7552  -34.6955   21.7041 H       1  LIG   0.1623   0.1500 
14    C8      -1.2960  -35.6300   19.8690 C.ar    1  LIG  -0.2723  -0.1500 
15    H5      -2.0662  -35.1073   19.3273 H       1  LIG   0.1522   0.1500 
16    C9      -0.4670  -36.5450   19.2400 C.ar    1  LIG   0.4373   0.1600 
17    H6      -0.5947  -36.7554   18.1915 H       1  LIG   0.0280   0.1500 
18    N3       0.5220  -37.2120   19.8740 N.ar    1  LIG  -0.6893  -0.6200 
19    C10      0.7040  -36.9790   21.1800 C.ar    1  LIG   0.6480   0.4100 
20    N4       1.7670  -37.6730   21.8260 N.pl3   1  LIG  -0.6924  -0.3690 
21    C11      2.7540  -36.8570   22.5840 C.ar    1  LIG   0.5805   0.4100 
22    C12      2.9040  -34.5090   25.6010 C.3     1  LIG  -0.0620   0.1435 
23    H7       2.2235  -33.7630   25.2820 H       1  LIG   0.0570   0.0000 
24    H8       2.4436  -35.1154   26.3371 H       1  LIG   0.0495   0.0000 
25    H9       3.7654  -34.0491   26.0108 H       1  LIG   0.0519   0.0000 
26    O1      -1.2400  -35.9060   23.9770 O.2     1  LIG  -0.6361  -0.5700 
27    C13      2.3440  -38.7570   21.0360 C.3     1  LIG   0.1354   0.0690 
28    H10      3.1238  -38.3754   20.4296 H       1  LIG   0.0981   0.1000 
29    C14      2.9380  -39.8900   21.8010 C.3     1  LIG  -0.1181  -0.2000 
30    H11      3.8890  -40.1268   21.3997 H       1  LIG   0.0732   0.1000 
31    H12      3.0430  -39.6129   22.8177 H       1  LIG   0.0789   0.1000 
32    C15      1.6390  -40.0610   21.0880 C.3     1  LIG  -0.1196  -0.2000 
33    H13      0.6832  -39.9283   21.5242 H       1  LIG   0.0807   0.1000 
34    H14      1.5292  -40.4423   20.1061 H       1  LIG   0.0733   0.1000 
@<TRIPOS>BOND
1     2     1     ar
2     3     2     1
3     4     2     ar
4     5     4     1
5     6     4     ar
6     7     6     ar
7     8     7     1
8     9     8     1
9     10    8     1
10    11    10    1
11    12    11    ar
12    13    12    1
13    14    12    ar
14    15    14    1
15    16    14    ar
16    17    16    1
17    18    16    ar
18    19    11    ar
19    19    18    ar
20    20    19    1
21    21    1     ar
22    21    7     ar
23    21    20    1
24    22    6     1
25    23    22    1
26    24    22    1
27    25    22    1
28    26    10    2
29    27    20    1
30    28    27    1
31    29    27    1
32    30    29    1
33    31    29    1
34    32    27    1
35    32    29    1
36    33    32    1
37    34    32    1
@<TRIPOS>SUBSTRUCTURE
1   LIG    1    
 
########## Name        : 1VRT.lig
########## Description : AM1BCC_CHARGES =  -0.0002 ORIGINAL_CHARGES =  -0.0000

@<TRIPOS>MOLECULE
1VRT.lig
34    37    1     0     0    
SMALL
USER_CHARGES
@<TRIPOS>ATOM
1     N1       4.0540  -36.9310   22.2210 N.ar    1  LIG  -0.6650  -0.6200 
2     C1       4.9660  -36.2380   22.9390 C.ar    1  LIG   0.3947   0.1600 
3     H1       6.0082  -36.2811   22.6707 H       1  LIG   0.0281   0.1500 
4     C2       4.6240  -35.4500   24.0360 C.ar    1  LIG  -0.2334  -0.1500 
5     H2       5.3884  -34.9151   24.5740 H       1  LIG   0.1480   0.1500 
6     C3       3.3050  -35.3690   24.4150 C.ar    1  LIG  -0.0698  -0.1435 
7     C4       2.3460  -36.0770   23.6860 C.ar    1  LIG  -0.0398   0.1170 
8     N2       0.9890  -36.0280   24.1030 N.am    1  LIG  -0.4596  -0.5470 
9     H3       0.7643  -35.9928   25.0860 H       1  LIG   0.3311   0.3700 
10    C5      -0.1450  -36.0180   23.4080 C.2     1  LIG   0.7361   0.5438 
11    C6      -0.1190  -36.0770   21.8860 C.ar    1  LIG  -0.2550   0.0862 
12    C7      -1.1230  -35.3990   21.1890 C.ar    1  LIG  -0.0321  -0.1500 
13    H4      -1.7552  -34.6955   21.7041 H       1  LIG   0.1623   0.1500 
14    C8      -1.2960  -35.6300   19.8690 C.ar    1  LIG  -0.2723  -0.1500 
15    H5      -2.0662  -35.1073   19.3273 H       1  LIG   0.1522   0.1500 
16    C9      -0.4670  -36.5450   19.2400 C.ar    1  LIG   0.4373   0.1600 
17    H6      -0.5947  -36.7554   18.1915 H       1  LIG   0.0280   0.1500 
18    N3       0.5220  -37.2120   19.8740 N.ar    1  LIG  -0.6893  -0.6200 
19    C10      0.7040  -36.9790   21.1800 C.ar    1  LIG   0.6480   0.4100 
20    N4       1.7670  -37.6730   21.8260 N.pl3   1  LIG  -0.6924  -0.3690 
21    C11      2.7540  -36.8570   22.5840 C.ar    1  LIG   0.5805   0.4100 
22    C12      2.9040  -34.5090   25.6010 C.3     1  LIG  -0.0620   0.1435 
23    H7       2.2235  -33.7630   25.2820 H       1  LIG   0.0570   0.0000 
24    H8       2.4436  -35.1154   26.3371 H       1  LIG   0.0495   0.0000 
25    H9       3.7654  -34.0491   26.0108 H       1  LIG   0.0519   0.0000 
26    O1      -1.2400  -35.9060   23.9770 O.2     1  LIG  -0.6361  -0.5700 
27    C13      2.3440  -38.7570   21.0360 C.3     1  LIG   0.1354   0.0690 
28    H10      3.1238  -38.3754   20.4296 H       1  LIG   0.0981   0.1000 
29    C14      2.9380  -39.8900   21.8010 C.3     1  LIG  -0.1181  -0.2000 
30    H11      3.8890  -40.1268   21.3997 H       1  LIG   0.0732   0.1000 
31    H12      3.0430  -39.6129   22.8177 H       1  LIG   0.0789   0.1000 
32    C15      1.6390  -40.0610   21.0880 C.3     1  LIG  -0.1196  -0.2000 
33    H13      0.6832  -39.9283   21.5242 H       1  LIG   0.0807   0.1000 
34    H14      1.5292  -40.4423   20.1061 H       1  LIG   0.0733   0.1000 
@<TRIPOS>BOND
1     2     1     ar
2     3     2     1
3     4     2     ar
4     5     4     1
5     6     4     ar
6     7     6     ar
7     8     7     1
8     9     8     1
9     10    8     1
10    11    10    1
11    12    11    ar
12    13    12    1
13    14    12    ar
14    15    14    1
15    16    14    ar
16    17    16    1
17    18    16    ar
18    19    11    ar
19    19    18    ar
20    20    19    1
21    21    1     ar
22    21    7     ar
23    21    20    1
24    22    6     1
25    23    22    1
26    24    22    1
27    25    22    1
28    26    10    2
29    27    20    1
30    28    27    1
31    29    27    1
32    30    29    1
33    31    29    1
34    32    27    1
35    32    29    1
36    33    32    1
37    34    32    1
@<TRIPOS>SUBSTRUCTURE
1   LIG    1    
 
########## Name        : 1VRT.lig
########## Description : AM1BCC_CHARGES =  -0.0002 ORIGINAL_CHARGES =  -0.0000

@<TRIPOS>MOLECULE
1VRT.lig
34    37    1     0     0    
SMALL
USER_CHARGES
@<TRIPOS>ATOM
1     N1       4.0540  -36.9310   22.2210 N.ar    1  LIG  -0.6650  -0.6200 
2     C1       4.9660  -36.2380   22.9390 C.ar    1  LIG   0.3947   0.1600 
3     H1       6.0082  -36.2811   22.6707 H       1  LIG   0.0281   0.1500 
4     C2       4.6240  -35.4500   24.0360 C.ar    1  LIG  -0.2334  -0.1500 
5     H2       5.3884  -34.9151   24.5740 H       1  LIG   0.1480   0.1500 
6     C3       3.3050  -35.3690   24.4150 C.ar    1  LIG  -0.0698  -0.1435 
7     C4       2.3460  -36.0770   23.6860 C.ar    1  LIG  -0.0398   0.1170 
8     N2       0.9890  -36.0280   24.1030 N.am    1  LIG  -0.4596  -0.5470 
9     H3       0.7643  -35.9928   25.0860 H       1  LIG   0.3311   0.3700 
10    C5      -0.1450  -36.0180   23.4080 C.2     1  LIG   0.7361   0.5438 
11    C6      -0.1190  -36.0770   21.8860 C.ar    1  LIG  -0.2550   0.0862 
12    C7      -1.1230  -35.3990   21.1890 C.ar    1  LIG  -0.0321  -0.1500 
13    H4      -1.7552  -34.6955   21.7041 H       1  LIG   0.1623   0.1500 
14    C8      -1.2960  -35.6300   19.8690 C.ar    1  LIG  -0.2723  -0.1500 
15    H5      -2.0662  -35.1073   19.3273 H       1  LIG   0.1522   0.1500 
16    C9      -0.4670  -36.5450   19.2400 C.ar    1  LIG   0.4373   0.1600 
17    H6      -0.5947  -36.7554   18.1915 H       1  LIG   0.0280   0.1500 
18    N3       0.5220  -37.2120   19.8740 N.ar    1  LIG  -0.6893  -0.6200 
19    C10      0.7040  -36.9790   21.1800 C.ar    1  LIG   0.6480   0.4100 
20    N4       1.7670  -37.6730   21.8260 N.pl3   1  LIG  -0.6924  -0.3690 
21    C11      2.7540  -36.8570   22.5840 C.ar    1  LIG   0.5805   0.4100 
22    C12      2.9040  -34.5090   25.6010 C.3     1  LIG  -0.0620   0.1435 
23    H7       2.2235  -33.7630   25.2820 H       1  LIG   0.0570   0.0000 
24    H8       2.4436  -35.1154   26.3371 H       1  LIG   0.0495   0.0000 
25    H9       3.7654  -34.0491   26.0108 H       1  LIG   0.0519   0.0000 
26    O1      -1.2400  -35.9060   23.9770 O.2     1  LIG  -0.6361  -0.5700 
27    C13      2.3440  -38.7570   21.0360 C.3     1  LIG   0.1354   0.0690 
28    H10      3.1238  -38.3754   20.4296 H       1  LIG   0.0981   0.1000 
29    C14      2.9380  -39.8900   21.8010 C.3     1  LIG  -0.1181  -0.2000 
30    H11      3.8890  -40.1268   21.3997 H       1  LIG   0.0732   0.1000 
31    H12      3.0430  -39.6129   22.8177 H       1  LIG   0.0789   0.1000 
32    C15      1.6390  -40.0610   21.0880 C.3     1  LIG  -0.1196  -0.2000 
33    H13      0.6832  -39.9283   21.5242 H       1  LIG   0.0807   0.1000 
34    H14      1.5292  -40.4423   20.1061 H       1  LIG   0.0733   0.1000 
@<TRIPOS>BOND
1     2     1     ar
2     3     2     1
3     4     2     ar
4     5     4     1
5     6     4     ar
6     7     6     ar
7     8     7     1
8     9     8     1
9     10    8     1
10    11    10    1
11    12    11    ar
12    13    12    1
13    14    12    ar
14    15    14    1
15    16    14    ar
16    17    16    1
17    18    16    ar
18    19    11    ar
19    19    18    ar
20    20    19    1
21    21    1     ar
22    21    7     ar
23    21    20    1
24    22    6     1
25    23    22    1
26    24    22    1
27    25    22    1
28    26    10    2
29    27    20    1
30    28    27    1
31    29    27    1
32    30    29    1
33    31    29    1
34    32    27    1
35    32    29    1
36    33    32    1
37    34    32    1
@<TRIPOS>SUBSTRUCTURE
1   LIG    1    
 
########## Name        : 1VRT.lig
########## Description : AM1BCC_CHARGES =  -0.0002 ORIGINAL_CHARGES =  -0.0000

@<TRIPOS>MOLECULE
1VRT.lig
34    37    1     0     0    
SMALL
USER_CHARGES
@<TRIPOS>ATOM
1     N1       4.0540  -36.9310   22.2210 N.ar    1  LIG  -0.6650  -0.6200 
2     C1       4.9660  -36.2380   22.9390 C.ar    1  LIG   0.3947   0.1600 
3     H1       6.0082  -36.2811   22.6707 H       1  LIG   0.0281   0.1500 
4     C2       4.6240  -35.4500   24.0360 C.ar    1  LIG  -0.2334  -0.1500 
5     H2       5.3884  -34.9151   24.5740 H       1  LIG   0.1480   0.1500 
6     C3       3.3050  -35.3690   24.4150 C.ar    1  LIG  -0.0698  -0.1435 
7     C4       2.3460  -36.0770   23.6860 C.ar    1  LIG  -0.0398   0.1170 
8     N2       0.9890  -36.0280   24.1030 N.am    1  LIG  -0.4596  -0.5470 
9     H3       0.7643  -35.9928   25.0860 H       1  LIG   0.3311   0.3700 
10    C5      -0.1450  -36.0180   23.4080 C.2     1  LIG   0.7361   0.5438 
11    C6      -0.1190  -36.0770   21.8860 C.ar    1  LIG  -0.2550   0.0862 
12    C7      -1.1230  -35.3990   21.1890 C.ar    1  LIG  -0.0321  -0.1500 
13    H4      -1.7552  -34.6955   21.7041 H       1  LIG   0.1623   0.1500 
14    C8      -1.2960  -35.6300   19.8690 C.ar    1  LIG  -0.2723  -0.1500 
15    H5      -2.0662  -35.1073   19.3273 H       1  LIG   0.1522   0.1500 
16    C9      -0.4670  -36.5450   19.2400 C.ar    1  LIG   0.4373   0.1600 
17    H6      -0.5947  -36.7554   18.1915 H       1  LIG   0.0280   0.1500 
18    N3       0.5220  -37.2120   19.8740 N.ar    1  LIG  -0.6893  -0.6200 
19    C10      0.7040  -36.9790   21.1800 C.ar    1  LIG   0.6480   0.4100 
20    N4       1.7670  -37.6730   21.8260 N.pl3   1  LIG  -0.6924  -0.3690 
21    C11      2.7540  -36.8570   22.5840 C.ar    1  LIG   0.5805   0.4100 
22    C12      2.9040  -34.5090   25.6010 C.3     1  LIG  -0.0620   0.1435 
23    H7       2.2235  -33.7630   25.2820 H       1  LIG   0.0570   0.0000 
24    H8       2.4436  -35.1154   26.3371 H       1  LIG   0.0495   0.0000 
25    H9       3.7654  -34.0491   26.0108 H       1  LIG   0.0519   0.0000 
26    O1      -1.2400  -35.9060   23.9770 O.2     1  LIG  -0.6361  -0.5700 
27    C13      2.3440  -38.7570   21.0360 C.3     1  LIG   0.1354   0.0690 
28    H10      3.1238  -38.3754   20.4296 H       1  LIG   0.0981   0.1000 
29    C14      2.9380  -39.8900   21.8010 C.3     1  LIG  -0.1181  -0.2000 
30    H11      3.8890  -40.1268   21.3997 H       1  LIG   0.0732   0.1000 
31    H12      3.0430  -39.6129   22.8177 H       1  LIG   0.0789   0.1000 
32    C15      1.6390  -40.0610   21.0880 C.3     1  LIG  -0.1196  -0.2000 
33    H13      0.6832  -39.9283   21.5242 H       1  LIG   0.0807   0.1000 
34    H14      1.5292  -40.4423   20.1061 H       1  LIG   0.0733   0.1000 
@<TRIPOS>BOND
1     2     1     ar
2     3     2     1
3     4     2     ar
4     5     4     1
5     6     4     ar
6     7     6     ar
7     8     7     1
8     9     8     1
9     10    8     1
10    11    10    1
11    12    11    ar
12    13    12    1
13    14    12    ar
14    15    14    1
15    16    14    ar
16    17    16    1
17    18    16    ar
18    19    11    ar
19    19    18    ar
20    20    19    1
21    21    1     ar
22    21    7     ar
23    21    20    1
24    22    6     1
25    23    22    1
26    24    22    1
27    25    22    1
28    26    10    2
29    27    20    1
30    28    27    1
31    29    27    1
32    30    29    1
33    31    29    1
34    32    27    1
35    32    29    1
36    33    32    1
37    34    32    1
@<TRIPOS>SUBSTRUCTURE
1   LIG    1    
 
########## Name        : 1VRT.lig
########## Description : AM1BCC_CHARGES =  -0.0002 ORIGINAL_CHARGES =  -0.0000

@<TRIPOS>MOLECULE
1VRT.lig
34    37    1     0     0    
SMALL
USER_CHARGES
@<TRIPOS>ATOM
1     N1       4.0540  -36.9310   22.2210 N.ar    1  LIG  -0.6650  -0.6200 
2     C1       4.9660  -36.2380   22.9390 C.ar    1  LIG   0.3947   0.1600 
3     H1       6.0082  -36.2811   22.6707 H       1  LIG   0.0281   0.1500 
4     C2       4.6240  -35.4500   24.0360 C.ar    1  LIG  -0.2334  -0.1500 
5     H2       5.3884  -34.9151   24.5740 H       1  LIG   0.1480   0.1500 
6     C3       3.3050  -35.3690   24.4150 C.ar    1  LIG  -0.0698  -0.1435 
7     C4       2.3460  -36.0770   23.6860 C.ar    1  LIG  -0.0398   0.1170 
8     N2       0.9890  -36.0280   24.1030 N.am    1  LIG  -0.4596  -0.5470 
9     H3       0.7643  -35.9928   25.0860 H       1  LIG   0.3311   0.3700 
10    C5      -0.1450  -36.0180   23.4080 C.2     1  LIG   0.7361   0.5438 
11    C6      -0.1190  -36.0770   21.8860 C.ar    1  LIG  -0.2550   0.0862 
12    C7      -1.1230  -35.3990   21.1890 C.ar    1  LIG  -0.0321  -0.1500 
13    H4      -1.7552  -34.6955   21.7041 H       1  LIG   0.1623   0.1500 
14    C8      -1.2960  -35.6300   19.8690 C.ar    1  LIG  -0.2723  -0.1500 
15    H5      -2.0662  -35.1073   19.3273 H       1  LIG   0.1522   0.1500 
16    C9      -0.4670  -36.5450   19.2400 C.ar    1  LIG   0.4373   0.1600 
17    H6      -0.5947  -36.7554   18.1915 H       1  LIG   0.0280   0.1500 
18    N3       0.5220  -37.2120   19.8740 N.ar    1  LIG  -0.6893  -0.6200 
19    C10      0.7040  -36.9790   21.1800 C.ar    1  LIG   0.6480   0.4100 
20    N4       1.7670  -37.6730   21.8260 N.pl3   1  LIG  -0.6924  -0.3690 
21    C11      2.7540  -36.8570   22.5840 C.ar    1  LIG   0.5805   0.4100 
22    C12      2.9040  -34.5090   25.6010 C.3     1  LIG  -0.0620   0.1435 
23    H7       2.2235  -33.7630   25.2820 H       1  LIG   0.0570   0.0000 
24    H8       2.4436  -35.1154   26.3371 H       1  LIG   0.0495   0.0000 
25    H9       3.7654  -34.0491   26.0108 H       1  LIG   0.0519   0.0000 
26    O1      -1.2400  -35.9060   23.9770 O.2     1  LIG  -0.6361  -0.5700 
27    C13      2.3440  -38.7570   21.0360 C.3     1  LIG   0.1354   0.0690 
28    H10      3.1238  -38.3754   20.4296 H       1  LIG   0.0981   0.1000 
29    C14      2.9380  -39.8900   21.8010 C.3     1  LIG  -0.1181  -0.2000 
30    H11      3.8890  -40.1268   21.3997 H       1  LIG   0.0732   0.1000 
31    H12      3.0430  -39.6129   22.8177 H       1  LIG   0.0789   0.1000 
32    C15      1.6390  -40.0610   21.0880 C.3     1  LIG  -0.1196  -0.2000 
33    H13      0.6832  -39.9283   21.5242 H       1  LIG   0.0807   0.1000 
34    H14      1.5292  -40.4423   20.1061 H       1  LIG   0.0733   0.1000 
@<TRIPOS>BOND
1     2     1     ar
2     3     2     1
3     4     2     ar
4     5     4     1
5     6     4     ar
6     7     6     ar
7     8     7     1
8     9     8     1
9     10    8     1
10    11    10    1
11    12    11    ar
12    13    12    1
13    14    12    ar
14    15    14    1
15    16    14    ar
16    17    16    1
17    18    16    ar
18    19    11    ar
19    19    18    ar
20    20    19    1
21    21    1     ar
22    21    7     ar
23    21    20    1
24    22    6     1
25    23    22    1
26    24    22    1
27    25    22    1
28    26    10    2
29    27    20    1
30    28    27    1
31    29    27    1
32    30    29    1
33    31    29    1
34    32    27    1
35    32    29    1
36    33    32    1
37    34    32    1
@<TRIPOS>SUBSTRUCTURE
1   LIG    1    
 
########## Name        : 1VRT.lig
########## Description : AM1BCC_CHARGES =  -0.0002 ORIGINAL_CHARGES =  -0.0000

@<TRIPOS>MOLECULE
1VRT.lig
34    37    1     0     0    
SMALL
USER_CHARGES
@<TRIPOS>ATOM
1     N1       4.0540  -36.9310   22.2210 N.ar    1  LIG  -0.6650  -0.6200 
2     C1       4.9660  -36.2380   22.9390 C.ar    1  LIG   0.3947   0.1600 
3     H1       6.0082  -36.2811   22.6707 H       1  LIG   0.0281   0.1500 
4     C2       4.6240  -35.4500   24.0360 C.ar    1  LIG  -0.2334  -0.1500 
5     H2       5.3884  -34.9151   24.5740 H       1  LIG   0.1480   0.1500 
6     C3       3.3050  -35.3690   24.4150 C.ar    1  LIG  -0.0698  -0.1435 
7     C4       2.3460  -36.0770   23.6860 C.ar    1  LIG  -0.0398   0.1170 
8     N2       0.9890  -36.0280   24.1030 N.am    1  LIG  -0.4596  -0.5470 
9     H3       0.7643  -35.9928   25.0860 H       1  LIG   0.3311   0.3700 
10    C5      -0.1450  -36.0180   23.4080 C.2     1  LIG   0.7361   0.5438 
11    C6      -0.1190  -36.0770   21.8860 C.ar    1  LIG  -0.2550   0.0862 
12    C7      -1.1230  -35.3990   21.1890 C.ar    1  LIG  -0.0321  -0.1500 
13    H4      -1.7552  -34.6955   21.7041 H       1  LIG   0.1623   0.1500 
14    C8      -1.2960  -35.6300   19.8690 C.ar    1  LIG  -0.2723  -0.1500 
15    H5      -2.0662  -35.1073   19.3273 H       1  LIG   0.1522   0.1500 
16    C9      -0.4670  -36.5450   19.2400 C.ar    1  LIG   0.4373   0.1600 
17    H6      -0.5947  -36.7554   18.1915 H       1  LIG   0.0280   0.1500 
18    N3       0.5220  -37.2120   19.8740 N.ar    1  LIG  -0.6893  -0.6200 
19    C10      0.7040  -36.9790   21.1800 C.ar    1  LIG   0.6480   0.4100 
20    N4       1.7670  -37.6730   21.8260 N.pl3   1  LIG  -0.6924  -0.3690 
21    C11      2.7540  -36.8570   22.5840 C.ar    1  LIG   0.5805   0.4100 
22    C12      2.9040  -34.5090   25.6010 C.3     1  LIG  -0.0620   0.1435 
23    H7       2.2235  -33.7630   25.2820 H       1  LIG   0.0570   0.0000 
24    H8       2.4436  -35.1154   26.3371 H       1  LIG   0.0495   0.0000 
25    H9       3.7654  -34.0491   26.0108 H       1  LIG   0.0519   0.0000 
26    O1      -1.2400  -35.9060   23.9770 O.2     1  LIG  -0.6361  -0.5700 
27    C13      2.3440  -38.7570   21.0360 C.3     1  LIG   0.1354   0.0690 
28    H10      3.1238  -38.3754   20.4296 H       1  LIG   0.0981   0.1000 
29    C14      2.9380  -39.8900   21.8010 C.3     1  LIG  -0.1181  -0.2000 
30    H11      3.8890  -40.1268   21.3997 H       1  LIG   0.0732   0.1000 
31    H12      3.0430  -39.6129   22.8177 H       1  LIG   0.0789   0.1000 
32    C15      1.6390  -40.0610   21.0880 C.3     1  LIG  -0.1196  -0.2000 
33    H13      0.6832  -39.9283   21.5242 H       1  LIG   0.0807   0.1000 
34    H14      1.5292  -40.4423   20.1061 H       1  LIG   0.0733   0.1000 
@<TRIPOS>BOND
1     2     1     ar
2     3     2     1
3     4     2     ar
4     5     4     1
5     6     4     ar
6     7     6     ar
7     8     7     1
8     9     8     1
9     10    8     1
10    11    10    1
11    12    11    ar
12    13    12    1
13    14    12    ar
14    15    14    1
15    16    14    ar
16    17    16    1
17    18    16    ar
18    19    11    ar
19    19    18    ar
20    20    19    1
21    21    1     ar
22    21    7     ar
23    21    20    1
24    22    6     1
25    23    22    1
26    24    22    1
27    25    22    1
28    26    10    2
29    27    20    1
30    28    27    1
31    29    27    1
32    30    29    1
33    31    29    1
34    32    27    1
35    32    29    1
36    33    32    1
37    34    32    1
@<TRIPOS>SUBSTRUCTURE
1   LIG    1    
 
########## Name        : 1VRT.lig
########## Description : AM1BCC_CHARGES =  -0.0002 ORIGINAL_CHARGES =  -0.0000

@<TRIPOS>MOLECULE
1VRT.lig
34    37    1     0     0    
SMALL
USER_CHARGES
@<TRIPOS>ATOM
1     N1       4.0540  -36.9310   22.2210 N.ar    1  LIG  -0.6650  -0.6200 
2     C1       4.9660  -36.2380   22.9390 C.ar    1  LIG   0.3947   0.1600 
3     H1       6.0082  -36.2811   22.6707 H       1  LIG   0.0281   0.1500 
4     C2       4.6240  -35.4500   24.0360 C.ar    1  LIG  -0.2334  -0.1500 
5     H2       5.3884  -34.9151   24.5740 H       1  LIG   0.1480   0.1500 
6     C3       3.3050  -35.3690   24.4150 C.ar    1  LIG  -0.0698  -0.1435 
7     C4       2.3460  -36.0770   23.6860 C.ar    1  LIG  -0.0398   0.1170 
8     N2       0.9890  -36.0280   24.1030 N.am    1  LIG  -0.4596  -0.5470 
9     H3       0.7643  -35.9928   25.0860 H       1  LIG   0.3311   0.3700 
10    C5      -0.1450  -36.0180   23.4080 C.2     1  LIG   0.7361   0.5438 
11    C6      -0.1190  -36.0770   21.8860 C.ar    1  LIG  -0.2550   0.0862 
12    C7      -1.1230  -35.3990   21.1890 C.ar    1  LIG  -0.0321  -0.1500 
13    H4      -1.7552  -34.6955   21.7041 H       1  LIG   0.1623   0.1500 
14    C8      -1.2960  -35.6300   19.8690 C.ar    1  LIG  -0.2723  -0.1500 
15    H5      -2.0662  -35.1073   19.3273 H       1  LIG   0.1522   0.1500 
16    C9      -0.4670  -36.5450   19.2400 C.ar    1  LIG   0.4373   0.1600 
17    H6      -0.5947  -36.7554   18.1915 H       1  LIG   0.0280   0.1500 
18    N3       0.5220  -37.2120   19.8740 N.ar    1  LIG  -0.6893  -0.6200 
19    C10      0.7040  -36.9790   21.1800 C.ar    1  LIG   0.6480   0.4100 
20    N4       1.7670  -37.6730   21.8260 N.pl3   1  LIG  -0.6924  -0.3690 
21    C11      2.7540  -36.8570   22.5840 C.ar    1  LIG   0.5805   0.4100 
22    C12      2.9040  -34.5090   25.6010 C.3     1  LIG  -0.0620   0.1435 
23    H7       2.2235  -33.7630   25.2820 H       1  LIG   0.0570   0.0000 
24    H8       2.4436  -35.1154   26.3371 H       1  LIG   0.0495   0.0000 
25    H9       3.7654  -34.0491   26.0108 H       1  LIG   0.0519   0.0000 
26    O1      -1.2400  -35.9060   23.9770 O.2     1  LIG  -0.6361  -0.5700 
27    C13      2.3440  -38.7570   21.0360 C.3     1  LIG   0.1354   0.0690 
28    H10      3.1238  -38.3754   20.4296 H       1  LIG   0.0981   0.1000 
29    C14      2.9380  -39.8900   21.8010 C.3     1  LIG  -0.1181  -0.2000 
30    H11      3.8890  -40.1268   21.3997 H       1  LIG   0.0732   0.1000 
31    H12      3.0430  -39.6129   22.8177 H       1  LIG   0.0789   0.1000 
32    C15      1.6390  -40.0610   21.0880 C.3     1  LIG  -0.1196  -0.2000 
33    H13      0.6832  -39.9283   21.5242 H       1  LIG   0.0807   0.1000 
34    H14      1.5292  -40.4423   20.1061 H       1  LIG   0.0733   0.1000 
@<TRIPOS>BOND
1     2     1     ar
2     3     2     1
3     4     2     ar
4     5     4     1
5     6     4     ar
6     7     6     ar
7     8     7     1
8     9     8     1
9     10    8     1
10    11    10    1
11    12    11    ar
12    13    12    1
13    14    12    ar
14    15    14    1
15    16    14    ar
16    17    16    1
17    18    16    ar
18    19    11    ar
19    19    18    ar
20    20    19    1
21    21    1     ar
22    21    7     ar
23    21    20    1
24    22    6     1
25    23    22    1
26    24    22    1
27    25    22    1
28    26    10    2
29    27    20    1
30    28    27    1
31    29    27    1
32    30    29    1
33    31    29    1
34    32    27    1
35    32    29    1
36    33    32    1
37    34    32    1
@<TRIPOS>SUBSTRUCTURE
1   LIG    1    
 
########## Name        : 1VRT.lig
########## Description : AM1BCC_CHARGES =  -0.0002 ORIGINAL_CHARGES =  -0.0000

@<TRIPOS>MOLECULE
1VRT.lig
34    37    1     0     0    
SMALL
USER_CHARGES
@<TRIPOS>ATOM
1     N1       4.0540  -36.9310   22.2210 N.ar    1  LIG  -0.6650  -0.6200 
2     C1       4.9660  -36.2380   22.9390 C.ar    1  LIG   0.3947   0.1600 
3     H1       6.0082  -36.2811   22.6707 H       1  LIG   0.0281   0.1500 
4     C2       4.6240  -35.4500   24.0360 C.ar    1  LIG  -0.2334  -0.1500 
5     H2       5.3884  -34.9151   24.5740 H       1  LIG   0.1480   0.1500 
6     C3       3.3050  -35.3690   24.4150 C.ar    1  LIG  -0.0698  -0.1435 
7     C4       2.3460  -36.0770   23.6860 C.ar    1  LIG  -0.0398   0.1170 
8     N2       0.9890  -36.0280   24.1030 N.am    1  LIG  -0.4596  -0.5470 
9     H3       0.7643  -35.9928   25.0860 H       1  LIG   0.3311   0.3700 
10    C5      -0.1450  -36.0180   23.4080 C.2     1  LIG   0.7361   0.5438 
11    C6      -0.1190  -36.0770   21.8860 C.ar    1  LIG  -0.2550   0.0862 
12    C7      -1.1230  -35.3990   21.1890 C.ar    1  LIG  -0.0321  -0.1500 
13    H4      -1.7552  -34.6955   21.7041 H       1  LIG   0.1623   0.1500 
14    C8      -1.2960  -35.6300   19.8690 C.ar    1  LIG  -0.2723  -0.1500 
15    H5      -2.0662  -35.1073   19.3273 H       1  LIG   0.1522   0.1500 
16    C9      -0.4670  -36.5450   19.2400 C.ar    1  LIG   0.4373   0.1600 
17    H6      -0.5947  -36.7554   18.1915 H       1  LIG   0.0280   0.1500 
18    N3       0.5220  -37.2120   19.8740 N.ar    1  LIG  -0.6893  -0.6200 
19    C10      0.7040  -36.9790   21.1800 C.ar    1  LIG   0.6480   0.4100 
20    N4       1.7670  -37.6730   21.8260 N.pl3   1  LIG  -0.6924  -0.3690 
21    C11      2.7540  -36.8570   22.5840 C.ar    1  LIG   0.5805   0.4100 
22    C12      2.9040  -34.5090   25.6010 C.3     1  LIG  -0.0620   0.1435 
23    H7       2.2235  -33.7630   25.2820 H       1  LIG   0.0570   0.0000 
24    H8       2.4436  -35.1154   26.3371 H       1  LIG   0.0495   0.0000 
25    H9       3.7654  -34.0491   26.0108 H       1  LIG   0.0519   0.0000 
26    O1      -1.2400  -35.9060   23.9770 O.2     1  LIG  -0.6361  -0.5700 
27    C13      2.3440  -38.7570   21.0360 C.3     1  LIG   0.1354   0.0690 
28    H10      3.1238  -38.3754   20.4296 H       1  LIG   0.0981   0.1000 
29    C14      2.9380  -39.8900   21.8010 C.3     1  LIG  -0.1181  -0.2000 
30    H11      3.8890  -40.1268   21.3997 H       1  LIG   0.0732   0.1000 
31    H12      3.0430  -39.6129   22.8177 H       1  LIG   0.0789   0.1000 
32    C15      1.6390  -40.0610   21.0880 C.3     1  LIG  -0.1196  -0.2000 
33    H13      0.6832  -39.9283   21.5242 H       1  LIG   0.0807   0.1000 
34    H14      1.5292  -40.4423   20.1061 H       1  LIG   0.0733   0.1000 
@<TRIPOS>BOND
1     2     1     ar
2     3     2     1
3     4     2     ar
4     5     4     1
5     6     4     ar
6     7     6     ar
7     8     7     1
8     9     8     1
9     10    8     1
10    11    10    1
11    12    11    ar
12    13    12    1
13    14    12    ar
14    15    14    1
15    16    14    ar
16    17    16    1
17    18    16    ar
18    19    11    ar
19    19    18    ar
20    20    19    1
21    21    1     ar
22    21    7     ar
23    21    20    1
24    22    6     1
25    23    22    1
26    24    22    1
27    25    22    1
28    26    10    2
29    27    20    1
30    28    27    1
31    29    27    1
32    30    29    1
33    31    29    1
34    32    27    1
35    32    29    1
36    33    32    1
37    34    32    1
@<TRIPOS>SUBSTRUCTURE
1   LIG    1    
 
########## Name        : 1VRT.lig
########## Description : AM1BCC_CHARGES =  -0.0002 ORIGINAL_CHARGES =  -0.0000

@<TRIPOS>MOLECULE
1VRT.lig
34    37    1     0     0    
SMALL
USER_CHARGES
@<TRIPOS>ATOM
1     N1       4.0540  -36.9310   22.2210 N.ar    1  LIG  -0.6650  -0.6200 
2     C1       4.9660  -36.2380   22.9390 C.ar    1  LIG   0.3947   0.1600 
3     H1       6.0082  -36.2811   22.6707 H       1  LIG   0.0281   0.1500 
4     C2       4.6240  -35.4500   24.0360 C.ar    1  LIG  -0.2334  -0.1500 
5     H2       5.3884  -34.9151   24.5740 H       1  LIG   0.1480   0.1500 
6     C3       3.3050  -35.3690   24.4150 C.ar    1  LIG  -0.0698  -0.1435 
7     C4       2.3460  -36.0770   23.6860 C.ar    1  LIG  -0.0398   0.1170 
8     N2       0.9890  -36.0280   24.1030 N.am    1  LIG  -0.4596  -0.5470 
9     H3       0.7643  -35.9928   25.0860 H       1  LIG   0.3311   0.3700 
10    C5      -0.1450  -36.0180   23.4080 C.2     1  LIG   0.7361   0.5438 
11    C6      -0.1190  -36.0770   21.8860 C.ar    1  LIG  -0.2550   0.0862 
12    C7      -1.1230  -35.3990   21.1890 C.ar    1  LIG  -0.0321  -0.1500 
13    H4      -1.7552  -34.6955   21.7041 H       1  LIG   0.1623   0.1500 
14    C8      -1.2960  -35.6300   19.8690 C.ar    1  LIG  -0.2723  -0.1500 
15    H5      -2.0662  -35.1073   19.3273 H       1  LIG   0.1522   0.1500 
16    C9      -0.4670  -36.5450   19.2400 C.ar    1  LIG   0.4373   0.1600 
17    H6      -0.5947  -36.7554   18.1915 H       1  LIG   0.0280   0.1500 
18    N3       0.5220  -37.2120   19.8740 N.ar    1  LIG  -0.6893  -0.6200 
19    C10      0.7040  -36.9790   21.1800 C.ar    1  LIG   0.6480   0.4100 
20    N4       1.7670  -37.6730   21.8260 N.pl3   1  LIG  -0.6924  -0.3690 
21    C11      2.7540  -36.8570   22.5840 C.ar    1  LIG   0.5805   0.4100 
22    C12      2.9040  -34.5090   25.6010 C.3     1  LIG  -0.0620   0.1435 
23    H7       2.2235  -33.7630   25.2820 H       1  LIG   0.0570   0.0000 
24    H8       2.4436  -35.1154   26.3371 H       1  LIG   0.0495   0.0000 
25    H9       3.7654  -34.0491   26.0108 H       1  LIG   0.0519   0.0000 
26    O1      -1.2400  -35.9060   23.9770 O.2     1  LIG  -0.6361  -0.5700 
27    C13      2.3440  -38.7570   21.0360 C.3     1  LIG   0.1354   0.0690 
28    H10      3.1238  -38.3754   20.4296 H       1  LIG   0.0981   0.1000 
29    C14      2.9380  -39.8900   21.8010 C.3     1  LIG  -0.1181  -0.2000 
30    H11      3.8890  -40.1268   21.3997 H       1  LIG   0.0732   0.1000 
31    H12      3.0430  -39.6129   22.8177 H       1  LIG   0.0789   0.1000 
32    C15      1.6390  -40.0610   21.0880 C.3     1  LIG  -0.1196  -0.2000 
33    H13      0.6832  -39.9283   21.5242 H       1  LIG   0.0807   0.1000 
34    H14      1.5292  -40.4423   20.1061 H       1  LIG   0.0733   0.1000 
@<TRIPOS>BOND
1     2     1     ar
2     3     2     1
3     4     2     ar
4     5     4     1
5     6     4     ar
6     7     6     ar
7     8     7     1
8     9     8     1
9     10    8     1
10    11    10    1
11    12    11    ar
12    13    12    1
13    14    12    ar
14    15    14    1
15    16    14    ar
16    17    16    1
17    18    16    ar
18    19    11    ar
19    19    18    ar
20    20    19    1
21    21    1     ar
22    21    7     ar
23    21    20    1
24    22    6     1
25    23    22    1
26    24    22    1
27    25    22    1
28    26    10    2
29    27    20    1
30    28    27    1
31    29    27    1
32    30    29    1
33    31    29    1
34    32    27    1
35    32    29    1
36    33    32    1
37    34    32    1
@<TRIPOS>SUBSTRUCTURE
1   LIG    1    
 
########## Name        : 1VRT.lig
########## Description : AM1BCC_CHARGES =  -0.0002 ORIGINAL_CHARGES =  -0.0000

@<TRIPOS>MOLECULE
1VRT.lig
34    37    1     0     0    
SMALL
USER_CHARGES
@<TRIPOS>ATOM
1     N1       4.0540  -36.9310   22.2210 N.ar    1  LIG  -0.6650  -0.6200 
2     C1       4.9660  -36.2380   22.9390 C.ar    1  LIG   0.3947   0.1600 
3     H1       6.0082  -36.2811   22.6707 H       1  LIG   0.0281   0.1500 
4     C2       4.6240  -35.4500   24.0360 C.ar    1  LIG  -0.2334  -0.1500 
5     H2       5.3884  -34.9151   24.5740 H       1  LIG   0.1480   0.1500 
6     C3       3.3050  -35.3690   24.4150 C.ar    1  LIG  -0.0698  -0.1435 
7     C4       2.3460  -36.0770   23.6860 C.ar    1  LIG  -0.0398   0.1170 
8     N2       0.9890  -36.0280   24.1030 N.am    1  LIG  -0.4596  -0.5470 
9     H3       0.7643  -35.9928   25.0860 H       1  LIG   0.3311   0.3700 
10    C5      -0.1450  -36.0180   23.4080 C.2     1  LIG   0.7361   0.5438 
11    C6      -0.1190  -36.0770   21.8860 C.ar    1  LIG  -0.2550   0.0862 
12    C7      -1.1230  -35.3990   21.1890 C.ar    1  LIG  -0.0321  -0.1500 
13    H4      -1.7552  -34.6955   21.7041 H       1  LIG   0.1623   0.1500 
14    C8      -1.2960  -35.6300   19.8690 C.ar    1  LIG  -0.2723  -0.1500 
15    H5      -2.0662  -35.1073   19.3273 H       1  LIG   0.1522   0.1500 
16    C9      -0.4670  -36.5450   19.2400 C.ar    1  LIG   0.4373   0.1600 
17    H6      -0.5947  -36.7554   18.1915 H       1  LIG   0.0280   0.1500 
18    N3       0.5220  -37.2120   19.8740 N.ar    1  LIG  -0.6893  -0.6200 
19    C10      0.7040  -36.9790   21.1800 C.ar    1  LIG   0.6480   0.4100 
20    N4       1.7670  -37.6730   21.8260 N.pl3   1  LIG  -0.6924  -0.3690 
21    C11      2.7540  -36.8570   22.5840 C.ar    1  LIG   0.5805   0.4100 
22    C12      2.9040  -34.5090   25.6010 C.3     1  LIG  -0.0620   0.1435 
23    H7       2.2235  -33.7630   25.2820 H       1  LIG   0.0570   0.0000 
24    H8       2.4436  -35.1154   26.3371 H       1  LIG   0.0495   0.0000 
25    H9       3.7654  -34.0491   26.0108 H       1  LIG   0.0519   0.0000 
26    O1      -1.2400  -35.9060   23.9770 O.2     1  LIG  -0.6361  -0.5700 
27    C13      2.3440  -38.7570   21.0360 C.3     1  LIG   0.1354   0.0690 
28    H10      3.1238  -38.3754   20.4296 H       1  LIG   0.0981   0.1000 
29    C14      2.9380  -39.8900   21.8010 C.3     1  LIG  -0.1181  -0.2000 
30    H11      3.8890  -40.1268   21.3997 H       1  LIG   0.0732   0.1000 
31    H12      3.0430  -39.6129   22.8177 H       1  LIG   0.0789   0.1000 
32    C15      1.6390  -40.0610   21.0880 C.3     1  LIG  -0.1196  -0.2000 
33    H13      0.6832  -39.9283   21.5242 H       1  LIG   0.0807   0.1000 
34    H14      1.5292  -40.4423   20.1061 H       1  LIG   0.0733   0.1000 
@<TRIPOS>BOND
1     2     1     ar
2     3     2     1
3     4     2     ar
4     5     4     1
5     6     4     ar
6     7     6     ar
7     8     7     1
8     9     8     1
9     10    8     1
10    11    10    1
11    12    11    ar
12    13    12    1
13    14    12    ar
14    15    14    1
15    16    14    ar
16    17    16    1
17    18    16    ar
18    19    11    ar
19    19    18    ar
20    20    19    1
21    21    1     ar
22    21    7     ar
23    21    20    1
24    22    6     1
25    23    22    1
26    24    22    1
27    25    22    1
28    26    10    2
29    27    20    1
30    28    27    1
31    29    27    1
32    30    29    1
33    31    29    1
34    32    27    1
35    32    29    1
36    33    32    1
37    34    32    1
@<TRIPOS>SUBSTRUCTURE
1   LIG    1    
 
########## Name        : 1VRT.lig
########## Description : AM1BCC_CHARGES =  -0.0002 ORIGINAL_CHARGES =  -0.0000

@<TRIPOS>MOLECULE
1VRT.lig
34    37    1     0     0    
SMALL
USER_CHARGES
@<TRIPOS>ATOM
1     N1       4.0540  -36.9310   22.2210 N.ar    1  LIG  -0.6650  -0.6200 
2     C1       4.9660  -36.2380   22.9390 C.ar    1  LIG   0.3947   0.1600 
3     H1       6.0082  -36.2811   22.6707 H       1  LIG   0.0281   0.1500 
4     C2       4.6240  -35.4500   24.0360 C.ar    1  LIG  -0.2334  -0.1500 
5     H2       5.3884  -34.9151   24.5740 H       1  LIG   0.1480   0.1500 
6     C3       3.3050  -35.3690   24.4150 C.ar    1  LIG  -0.0698  -0.1435 
7     C4       2.3460  -36.0770   23.6860 C.ar    1  LIG  -0.0398   0.1170 
8     N2       0.9890  -36.0280   24.1030 N.am    1  LIG  -0.4596  -0.5470 
9     H3       0.7643  -35.9928   25.0860 H       1  LIG   0.3311   0.3700 
10    C5      -0.1450  -36.0180   23.4080 C.2     1  LIG   0.7361   0.5438 
11    C6      -0.1190  -36.0770   21.8860 C.ar    1  LIG  -0.2550   0.0862 
12    C7      -1.1230  -35.3990   21.1890 C.ar    1  LIG  -0.0321  -0.1500 
13    H4      -1.7552  -34.6955   21.7041 H       1  LIG   0.1623   0.1500 
14    C8      -1.2960  -35.6300   19.8690 C.ar    1  LIG  -0.2723  -0.1500 
15    H5      -2.0662  -35.1073   19.3273 H       1  LIG   0.1522   0.1500 
16    C9      -0.4670  -36.5450   19.2400 C.ar    1  LIG   0.4373   0.1600 
17    H6      -0.5947  -36.7554   18.1915 H       1  LIG   0.0280   0.1500 
18    N3       0.5220  -37.2120   19.8740 N.ar    1  LIG  -0.6893  -0.6200 
19    C10      0.7040  -36.9790   21.1800 C.ar    1  LIG   0.6480   0.4100 
20    N4       1.7670  -37.6730   21.8260 N.pl3   1  LIG  -0.6924  -0.3690 
21    C11      2.7540  -36.8570   22.5840 C.ar    1  LIG   0.5805   0.4100 
22    C12      2.9040  -34.5090   25.6010 C.3     1  LIG  -0.0620   0.1435 
23    H7       2.2235  -33.7630   25.2820 H       1  LIG   0.0570   0.0000 
24    H8       2.4436  -35.1154   26.3371 H       1  LIG   0.0495   0.0000 
25    H9       3.7654  -34.0491   26.0108 H       1  LIG   0.0519   0.0000 
26    O1      -1.2400  -35.9060   23.9770 O.2     1  LIG  -0.6361  -0.5700 
27    C13      2.3440  -38.7570   21.0360 C.3     1  LIG   0.1354   0.0690 
28    H10      3.1238  -38.3754   20.4296 H       1  LIG   0.0981   0.1000 
29    C14      2.9380  -39.8900   21.8010 C.3     1  LIG  -0.1181  -0.2000 
30    H11      3.8890  -40.1268   21.3997 H       1  LIG   0.0732   0.1000 
31    H12      3.0430  -39.6129   22.8177 H       1  LIG   0.0789   0.1000 
32    C15      1.6390  -40.0610   21.0880 C.3     1  LIG  -0.1196  -0.2000 
33    H13      0.6832  -39.9283   21.5242 H       1  LIG   0.0807   0.1000 
34    H14      1.5292  -40.4423   20.1061 H       1  LIG   0.0733   0.1000 
@<TRIPOS>BOND
1     2     1     ar
2     3     2     1
3     4     2     ar
4     5     4     1
5     6     4     ar
6     7     6     ar
7     8     7     1
8     9     8     1
9     10    8     1
10    11    10    1
11    12    11    ar
12    13    12    1
13    14    12    ar
14    15    14    1
15    16    14    ar
16    17    16    1
17    18    16    ar
18    19    11    ar
19    19    18    ar
20    20    19    1
21    21    1     ar
22    21    7     ar
23    21    20    1
24    22    6     1
25    23    22    1
26    24    22    1
27    25    22    1
28    26    10    2
29    27    20    1
30    28    27    1
31    29    27    1
32    30    29    1
33    31    29    1
34    32    27    1
35    32    29    1
36    33    32    1
37    34    32    1
@<TRIPOS>SUBSTRUCTURE
1   LIG    1    
 
########## Name        : 1VRT.lig
########## Description : AM1BCC_CHARGES =  -0.0002 ORIGINAL_CHARGES =  -0.0000

@<TRIPOS>MOLECULE
1VRT.lig
34    37    1     0     0    
SMALL
USER_CHARGES
@<TRIPOS>ATOM
1     N1       4.0540  -36.9310   22.2210 N.ar    1  LIG  -0.6650  -0.6200 
2     C1       4.9660  -36.2380   22.9390 C.ar    1  LIG   0.3947   0.1600 
3     H1       6.0082  -36.2811   22.6707 H       1  LIG   0.0281   0.1500 
4     C2       4.6240  -35.4500   24.0360 C.ar    1  LIG  -0.2334  -0.1500 
5     H2       5.3884  -34.9151   24.5740 H       1  LIG   0.1480   0.1500 
6     C3       3.3050  -35.3690   24.4150 C.ar    1  LIG  -0.0698  -0.1435 
7     C4       2.3460  -36.0770   23.6860 C.ar    1  LIG  -0.0398   0.1170 
8     N2       0.9890  -36.0280   24.1030 N.am    1  LIG  -0.4596  -0.5470 
9     H3       0.7643  -35.9928   25.0860 H       1  LIG   0.3311   0.3700 
10    C5      -0.1450  -36.0180   23.4080 C.2     1  LIG   0.7361   0.5438 
11    C6      -0.1190  -36.0770   21.8860 C.ar    1  LIG  -0.2550   0.0862 
12    C7      -1.1230  -35.3990   21.1890 C.ar    1  LIG  -0.0321  -0.1500 
13    H4      -1.7552  -34.6955   21.7041 H       1  LIG   0.1623   0.1500 
14    C8      -1.2960  -35.6300   19.8690 C.ar    1  LIG  -0.2723  -0.1500 
15    H5      -2.0662  -35.1073   19.3273 H       1  LIG   0.1522   0.1500 
16    C9      -0.4670  -36.5450   19.2400 C.ar    1  LIG   0.4373   0.1600 
17    H6      -0.5947  -36.7554   18.1915 H       1  LIG   0.0280   0.1500 
18    N3       0.5220  -37.2120   19.8740 N.ar    1  LIG  -0.6893  -0.6200 
19    C10      0.7040  -36.9790   21.1800 C.ar    1  LIG   0.6480   0.4100 
20    N4       1.7670  -37.6730   21.8260 N.pl3   1  LIG  -0.6924  -0.3690 
21    C11      2.7540  -36.8570   22.5840 C.ar    1  LIG   0.5805   0.4100 
22    C12      2.9040  -34.5090   25.6010 C.3     1  LIG  -0.0620   0.1435 
23    H7       2.2235  -33.7630   25.2820 H       1  LIG   0.0570   0.0000 
24    H8       2.4436  -35.1154   26.3371 H       1  LIG   0.0495   0.0000 
25    H9       3.7654  -34.0491   26.0108 H       1  LIG   0.0519   0.0000 
26    O1      -1.2400  -35.9060   23.9770 O.2     1  LIG  -0.6361  -0.5700 
27    C13      2.3440  -38.7570   21.0360 C.3     1  LIG   0.1354   0.0690 
28    H10      3.1238  -38.3754   20.4296 H       1  LIG   0.0981   0.1000 
29    C14      2.9380  -39.8900   21.8010 C.3     1  LIG  -0.1181  -0.2000 
30    H11      3.8890  -40.1268   21.3997 H       1  LIG   0.0732   0.1000 
31    H12      3.0430  -39.6129   22.8177 H       1  LIG   0.0789   0.1000 
32    C15      1.6390  -40.0610   21.0880 C.3     1  LIG  -0.1196  -0.2000 
33    H13      0.6832  -39.9283   21.5242 H       1  LIG   0.0807   0.1000 
34    H14      1.5292  -40.4423   20.1061 H       1  LIG   0.0733   0.1000 
@<TRIPOS>BOND
1     2     1     ar
2     3     2     1
3     4     2     ar
4     5     4     1
5     6     4     ar
6     7     6     ar
7     8     7     1
8     9     8     1
9     10    8     1
10    11    10    1
11    12    11    ar
12    13    12    1
13    14    12    ar
14    15    14    1
15    16    14    ar
16    17    16    1
17    18    16    ar
18    19    11    ar
19    19    18    ar
20    20    19    1
21    21    1     ar
22    21    7     ar
23    21    20    1
24    22    6     1
25    23    22    1
26    24    22    1
27    25    22    1
28    26    10    2
29    27    20    1
30    28    27    1
31    29    27    1
32    30    29    1
33    31    29    1
34    32    27    1
35    32    29    1
36    33    32    1
37    34    32    1
@<TRIPOS>SUBSTRUCTURE
1   LIG    1    
 
########## Name        : 1VRT.lig
########## Description : AM1BCC_CHARGES =  -0.0002 ORIGINAL_CHARGES =  -0.0000

@<TRIPOS>MOLECULE
1VRT.lig
34    37    1     0     0    
SMALL
USER_CHARGES
@<TRIPOS>ATOM
1     N1       4.0540  -36.9310   22.2210 N.ar    1  LIG  -0.6650  -0.6200 
2     C1       4.9660  -36.2380   22.9390 C.ar    1  LIG   0.3947   0.1600 
3     H1       6.0082  -36.2811   22.6707 H       1  LIG   0.0281   0.1500 
4     C2       4.6240  -35.4500   24.0360 C.ar    1  LIG  -0.2334  -0.1500 
5     H2       5.3884  -34.9151   24.5740 H       1  LIG   0.1480   0.1500 
6     C3       3.3050  -35.3690   24.4150 C.ar    1  LIG  -0.0698  -0.1435 
7     C4       2.3460  -36.0770   23.6860 C.ar    1  LIG  -0.0398   0.1170 
8     N2       0.9890  -36.0280   24.1030 N.am    1  LIG  -0.4596  -0.5470 
9     H3       0.7643  -35.9928   25.0860 H       1  LIG   0.3311   0.3700 
10    C5      -0.1450  -36.0180   23.4080 C.2     1  LIG   0.7361   0.5438 
11    C6      -0.1190  -36.0770   21.8860 C.ar    1  LIG  -0.2550   0.0862 
12    C7      -1.1230  -35.3990   21.1890 C.ar    1  LIG  -0.0321  -0.1500 
13    H4      -1.7552  -34.6955   21.7041 H       1  LIG   0.1623   0.1500 
14    C8      -1.2960  -35.6300   19.8690 C.ar    1  LIG  -0.2723  -0.1500 
15    H5      -2.0662  -35.1073   19.3273 H       1  LIG   0.1522   0.1500 
16    C9      -0.4670  -36.5450   19.2400 C.ar    1  LIG   0.4373   0.1600 
17    H6      -0.5947  -36.7554   18.1915 H       1  LIG   0.0280   0.1500 
18    N3       0.5220  -37.2120   19.8740 N.ar    1  LIG  -0.6893  -0.6200 
19    C10      0.7040  -36.9790   21.1800 C.ar    1  LIG   0.6480   0.4100 
20    N4       1.7670  -37.6730   21.8260 N.pl3   1  LIG  -0.6924  -0.3690 
21    C11      2.7540  -36.8570   22.5840 C.ar    1  LIG   0.5805   0.4100 
22    C12      2.9040  -34.5090   25.6010 C.3     1  LIG  -0.0620   0.1435 
23    H7       2.2235  -33.7630   25.2820 H       1  LIG   0.0570   0.0000 
24    H8       2.4436  -35.1154   26.3371 H       1  LIG   0.0495   0.0000 
25    H9       3.7654  -34.0491   26.0108 H       1  LIG   0.0519   0.0000 
26    O1      -1.2400  -35.9060   23.9770 O.2     1  LIG  -0.6361  -0.5700 
27    C13      2.3440  -38.7570   21.0360 C.3     1  LIG   0.1354   0.0690 
28    H10      3.1238  -38.3754   20.4296 H       1  LIG   0.0981   0.1000 
29    C14      2.9380  -39.8900   21.8010 C.3     1  LIG  -0.1181  -0.2000 
30    H11      3.8890  -40.1268   21.3997 H       1  LIG   0.0732   0.1000 
31    H12      3.0430  -39.6129   22.8177 H       1  LIG   0.0789   0.1000 
32    C15      1.6390  -40.0610   21.0880 C.3     1  LIG  -0.1196  -0.2000 
33    H13      0.6832  -39.9283   21.5242 H       1  LIG   0.0807   0.1000 
34    H14      1.5292  -40.4423   20.1061 H       1  LIG   0.0733   0.1000 
@<TRIPOS>BOND
1     2     1     ar
2     3     2     1
3     4     2     ar
4     5     4     1
5     6     4     ar
6     7     6     ar
7     8     7     1
8     9     8     1
9     10    8     1
10    11    10    1
11    12    11    ar
12    13    12    1
13    14    12    ar
14    15    14    1
15    16    14    ar
16    17    16    1
17    18    16    ar
18    19    11    ar
19    19    18    ar
20    20    19    1
21    21    1     ar
22    21    7     ar
23    21    20    1
24    22    6     1
25    23    22    1
26    24    22    1
27    25    22    1
28    26    10    2
29    27    20    1
30    28    27    1
31    29    27    1
32    30    29    1
33    31    29    1
34    32    27    1
35    32    29    1
36    33    32    1
37    34    32    1
@<TRIPOS>SUBSTRUCTURE
1   LIG    1    
 
########## Name        : 1VRT.lig
########## Description : AM1BCC_CHARGES =  -0.0002 ORIGINAL_CHARGES =  -0.0000

@<TRIPOS>MOLECULE
1VRT.lig
34    37    1     0     0    
SMALL
USER_CHARGES
@<TRIPOS>ATOM
1     N1       4.0540  -36.9310   22.2210 N.ar    1  LIG  -0.6650  -0.6200 
2     C1       4.9660  -36.2380   22.9390 C.ar    1  LIG   0.3947   0.1600 
3     H1       6.0082  -36.2811   22.6707 H       1  LIG   0.0281   0.1500 
4     C2       4.6240  -35.4500   24.0360 C.ar    1  LIG  -0.2334  -0.1500 
5     H2       5.3884  -34.9151   24.5740 H       1  LIG   0.1480   0.1500 
6     C3       3.3050  -35.3690   24.4150 C.ar    1  LIG  -0.0698  -0.1435 
7     C4       2.3460  -36.0770   23.6860 C.ar    1  LIG  -0.0398   0.1170 
8     N2       0.9890  -36.0280   24.1030 N.am    1  LIG  -0.4596  -0.5470 
9     H3       0.7643  -35.9928   25.0860 H       1  LIG   0.3311   0.3700 
10    C5      -0.1450  -36.0180   23.4080 C.2     1  LIG   0.7361   0.5438 
11    C6      -0.1190  -36.0770   21.8860 C.ar    1  LIG  -0.2550   0.0862 
12    C7      -1.1230  -35.3990   21.1890 C.ar    1  LIG  -0.0321  -0.1500 
13    H4      -1.7552  -34.6955   21.7041 H       1  LIG   0.1623   0.1500 
14    C8      -1.2960  -35.6300   19.8690 C.ar    1  LIG  -0.2723  -0.1500 
15    H5      -2.0662  -35.1073   19.3273 H       1  LIG   0.1522   0.1500 
16    C9      -0.4670  -36.5450   19.2400 C.ar    1  LIG   0.4373   0.1600 
17    H6      -0.5947  -36.7554   18.1915 H       1  LIG   0.0280   0.1500 
18    N3       0.5220  -37.2120   19.8740 N.ar    1  LIG  -0.6893  -0.6200 
19    C10      0.7040  -36.9790   21.1800 C.ar    1  LIG   0.6480   0.4100 
20    N4       1.7670  -37.6730   21.8260 N.pl3   1  LIG  -0.6924  -0.3690 
21    C11      2.7540  -36.8570   22.5840 C.ar    1  LIG   0.5805   0.4100 
22    C12      2.9040  -34.5090   25.6010 C.3     1  LIG  -0.0620   0.1435 
23    H7       2.2235  -33.7630   25.2820 H       1  LIG   0.0570   0.0000 
24    H8       2.4436  -35.1154   26.3371 H       1  LIG   0.0495   0.0000 
25    H9       3.7654  -34.0491   26.0108 H       1  LIG   0.0519   0.0000 
26    O1      -1.2400  -35.9060   23.9770 O.2     1  LIG  -0.6361  -0.5700 
27    C13      2.3440  -38.7570   21.0360 C.3     1  LIG   0.1354   0.0690 
28    H10      3.1238  -38.3754   20.4296 H       1  LIG   0.0981   0.1000 
29    C14      2.9380  -39.8900   21.8010 C.3     1  LIG  -0.1181  -0.2000 
30    H11      3.8890  -40.1268   21.3997 H       1  LIG   0.0732   0.1000 
31    H12      3.0430  -39.6129   22.8177 H       1  LIG   0.0789   0.1000 
32    C15      1.6390  -40.0610   21.0880 C.3     1  LIG  -0.1196  -0.2000 
33    H13      0.6832  -39.9283   21.5242 H       1  LIG   0.0807   0.1000 
34    H14      1.5292  -40.4423   20.1061 H       1  LIG   0.0733   0.1000 
@<TRIPOS>BOND
1     2     1     ar
2     3     2     1
3     4     2     ar
4     5     4     1
5     6     4     ar
6     7     6     ar
7     8     7     1
8     9     8     1
9     10    8     1
10    11    10    1
11    12    11    ar
12    13    12    1
13    14    12    ar
14    15    14    1
15    16    14    ar
16    17    16    1
17    18    16    ar
18    19    11    ar
19    19    18    ar
20    20    19    1
21    21    1     ar
22    21    7     ar
23    21    20    1
24    22    6     1
25    23    22    1
26    24    22    1
27    25    22    1
28    26    10    2
29    27    20    1
30    28    27    1
31    29    27    1
32    30    29    1
33    31    29    1
34    32    27    1
35    32    29    1
36    33    32    1
37    34    32    1
@<TRIPOS>SUBSTRUCTURE
1   LIG    1    
 
########## Name        : 1VRT.lig
########## Description : AM1BCC_CHARGES =  -0.0002 ORIGINAL_CHARGES =  -0.0000

@<TRIPOS>MOLECULE
1VRT.lig
34    37    1     0     0    
SMALL
USER_CHARGES
@<TRIPOS>ATOM
1     N1       4.0540  -36.9310   22.2210 N.ar    1  LIG  -0.6650  -0.6200 
2     C1       4.9660  -36.2380   22.9390 C.ar    1  LIG   0.3947   0.1600 
3     H1       6.0082  -36.2811   22.6707 H       1  LIG   0.0281   0.1500 
4     C2       4.6240  -35.4500   24.0360 C.ar    1  LIG  -0.2334  -0.1500 
5     H2       5.3884  -34.9151   24.5740 H       1  LIG   0.1480   0.1500 
6     C3       3.3050  -35.3690   24.4150 C.ar    1  LIG  -0.0698  -0.1435 
7     C4       2.3460  -36.0770   23.6860 C.ar    1  LIG  -0.0398   0.1170 
8     N2       0.9890  -36.0280   24.1030 N.am    1  LIG  -0.4596  -0.5470 
9     H3       0.7643  -35.9928   25.0860 H       1  LIG   0.3311   0.3700 
10    C5      -0.1450  -36.0180   23.4080 C.2     1  LIG   0.7361   0.5438 
11    C6      -0.1190  -36.0770   21.8860 C.ar    1  LIG  -0.2550   0.0862 
12    C7      -1.1230  -35.3990   21.1890 C.ar    1  LIG  -0.0321  -0.1500 
13    H4      -1.7552  -34.6955   21.7041 H       1  LIG   0.1623   0.1500 
14    C8      -1.2960  -35.6300   19.8690 C.ar    1  LIG  -0.2723  -0.1500 
15    H5      -2.0662  -35.1073   19.3273 H       1  LIG   0.1522   0.1500 
16    C9      -0.4670  -36.5450   19.2400 C.ar    1  LIG   0.4373   0.1600 
17    H6      -0.5947  -36.7554   18.1915 H       1  LIG   0.0280   0.1500 
18    N3       0.5220  -37.2120   19.8740 N.ar    1  LIG  -0.6893  -0.6200 
19    C10      0.7040  -36.9790   21.1800 C.ar    1  LIG   0.6480   0.4100 
20    N4       1.7670  -37.6730   21.8260 N.pl3   1  LIG  -0.6924  -0.3690 
21    C11      2.7540  -36.8570   22.5840 C.ar    1  LIG   0.5805   0.4100 
22    C12      2.9040  -34.5090   25.6010 C.3     1  LIG  -0.0620   0.1435 
23    H7       2.2235  -33.7630   25.2820 H       1  LIG   0.0570   0.0000 
24    H8       2.4436  -35.1154   26.3371 H       1  LIG   0.0495   0.0000 
25    H9       3.7654  -34.0491   26.0108 H       1  LIG   0.0519   0.0000 
26    O1      -1.2400  -35.9060   23.9770 O.2     1  LIG  -0.6361  -0.5700 
27    C13      2.3440  -38.7570   21.0360 C.3     1  LIG   0.1354   0.0690 
28    H10      3.1238  -38.3754   20.4296 H       1  LIG   0.0981   0.1000 
29    C14      2.9380  -39.8900   21.8010 C.3     1  LIG  -0.1181  -0.2000 
30    H11      3.8890  -40.1268   21.3997 H       1  LIG   0.0732   0.1000 
31    H12      3.0430  -39.6129   22.8177 H       1  LIG   0.0789   0.1000 
32    C15      1.6390  -40.0610   21.0880 C.3     1  LIG  -0.1196  -0.2000 
33    H13      0.6832  -39.9283   21.5242 H       1  LIG   0.0807   0.1000 
34    H14      1.5292  -40.4423   20.1061 H       1  LIG   0.0733   0.1000 
@<TRIPOS>BOND
1     2     1     ar
2     3     2     1
3     4     2     ar
4     5     4     1
5     6     4     ar
6     7     6     ar
7     8     7     1
8     9     8     1
9     10    8     1
10    11    10    1
11    12    11    ar
12    13    12    1
13    14    12    ar
14    15    14    1
15    16    14    ar
16    17    16    1
17    18    16    ar
18    19    11    ar
19    19    18    ar
20    20    19    1
21    21    1     ar
22    21    7     ar
23    21    20    1
24    22    6     1
25    23    22    1
26    24    22    1
27    25    22    1
28    26    10    2
29    27    20    1
30    28    27    1
31    29    27    1
32    30    29    1
33    31    29    1
34    32    27    1
35    32    29    1
36    33    32    1
37    34    32    1
@<TRIPOS>SUBSTRUCTURE
1   LIG    1    
 
########## Name        : 1VRT.lig
########## Description : AM1BCC_CHARGES =  -0.0002 ORIGINAL_CHARGES =  -0.0000

@<TRIPOS>MOLECULE
1VRT.lig
34    37    1     0     0    
SMALL
USER_CHARGES
@<TRIPOS>ATOM
1     N1       4.0540  -36.9310   22.2210 N.ar    1  LIG  -0.6650  -0.6200 
2     C1       4.9660  -36.2380   22.9390 C.ar    1  LIG   0.3947   0.1600 
3     H1       6.0082  -36.2811   22.6707 H       1  LIG   0.0281   0.1500 
4     C2       4.6240  -35.4500   24.0360 C.ar    1  LIG  -0.2334  -0.1500 
5     H2       5.3884  -34.9151   24.5740 H       1  LIG   0.1480   0.1500 
6     C3       3.3050  -35.3690   24.4150 C.ar    1  LIG  -0.0698  -0.1435 
7     C4       2.3460  -36.0770   23.6860 C.ar    1  LIG  -0.0398   0.1170 
8     N2       0.9890  -36.0280   24.1030 N.am    1  LIG  -0.4596  -0.5470 
9     H3       0.7643  -35.9928   25.0860 H       1  LIG   0.3311   0.3700 
10    C5      -0.1450  -36.0180   23.4080 C.2     1  LIG   0.7361   0.5438 
11    C6      -0.1190  -36.0770   21.8860 C.ar    1  LIG  -0.2550   0.0862 
12    C7      -1.1230  -35.3990   21.1890 C.ar    1  LIG  -0.0321  -0.1500 
13    H4      -1.7552  -34.6955   21.7041 H       1  LIG   0.1623   0.1500 
14    C8      -1.2960  -35.6300   19.8690 C.ar    1  LIG  -0.2723  -0.1500 
15    H5      -2.0662  -35.1073   19.3273 H       1  LIG   0.1522   0.1500 
16    C9      -0.4670  -36.5450   19.2400 C.ar    1  LIG   0.4373   0.1600 
17    H6      -0.5947  -36.7554   18.1915 H       1  LIG   0.0280   0.1500 
18    N3       0.5220  -37.2120   19.8740 N.ar    1  LIG  -0.6893  -0.6200 
19    C10      0.7040  -36.9790   21.1800 C.ar    1  LIG   0.6480   0.4100 
20    N4       1.7670  -37.6730   21.8260 N.pl3   1  LIG  -0.6924  -0.3690 
21    C11      2.7540  -36.8570   22.5840 C.ar    1  LIG   0.5805   0.4100 
22    C12      2.9040  -34.5090   25.6010 C.3     1  LIG  -0.0620   0.1435 
23    H7       2.2235  -33.7630   25.2820 H       1  LIG   0.0570   0.0000 
24    H8       2.4436  -35.1154   26.3371 H       1  LIG   0.0495   0.0000 
25    H9       3.7654  -34.0491   26.0108 H       1  LIG   0.0519   0.0000 
26    O1      -1.2400  -35.9060   23.9770 O.2     1  LIG  -0.6361  -0.5700 
27    C13      2.3440  -38.7570   21.0360 C.3     1  LIG   0.1354   0.0690 
28    H10      3.1238  -38.3754   20.4296 H       1  LIG   0.0981   0.1000 
29    C14      2.9380  -39.8900   21.8010 C.3     1  LIG  -0.1181  -0.2000 
30    H11      3.8890  -40.1268   21.3997 H       1  LIG   0.0732   0.1000 
31    H12      3.0430  -39.6129   22.8177 H       1  LIG   0.0789   0.1000 
32    C15      1.6390  -40.0610   21.0880 C.3     1  LIG  -0.1196  -0.2000 
33    H13      0.6832  -39.9283   21.5242 H       1  LIG   0.0807   0.1000 
34    H14      1.5292  -40.4423   20.1061 H       1  LIG   0.0733   0.1000 
@<TRIPOS>BOND
1     2     1     ar
2     3     2     1
3     4     2     ar
4     5     4     1
5     6     4     ar
6     7     6     ar
7     8     7     1
8     9     8     1
9     10    8     1
10    11    10    1
11    12    11    ar
12    13    12    1
13    14    12    ar
14    15    14    1
15    16    14    ar
16    17    16    1
17    18    16    ar
18    19    11    ar
19    19    18    ar
20    20    19    1
21    21    1     ar
22    21    7     ar
23    21    20    1
24    22    6     1
25    23    22    1
26    24    22    1
27    25    22    1
28    26    10    2
29    27    20    1
30    28    27    1
31    29    27    1
32    30    29    1
33    31    29    1
34    32    27    1
35    32    29    1
36    33    32    1
37    34    32    1
@<TRIPOS>SUBSTRUCTURE
1   LIG    1    
 
########## Name        : 1VRT.lig
########## Description : AM1BCC_CHARGES =  -0.0002 ORIGINAL_CHARGES =  -0.0000

@<TRIPOS>MOLECULE
1VRT.lig
34    37    1     0     0    
SMALL
USER_CHARGES
@<TRIPOS>ATOM
1     N1       4.0540  -36.9310   22.2210 N.ar    1  LIG  -0.6650  -0.6200 
2     C1       4.9660  -36.2380   22.9390 C.ar    1  LIG   0.3947   0.1600 
3     H1       6.0082  -36.2811   22.6707 H       1  LIG   0.0281   0.1500 
4     C2       4.6240  -35.4500   24.0360 C.ar    1  LIG  -0.2334  -0.1500 
5     H2       5.3884  -34.9151   24.5740 H       1  LIG   0.1480   0.1500 
6     C3       3.3050  -35.3690   24.4150 C.ar    1  LIG  -0.0698  -0.1435 
7     C4       2.3460  -36.0770   23.6860 C.ar    1  LIG  -0.0398   0.1170 
8     N2       0.9890  -36.0280   24.1030 N.am    1  LIG  -0.4596  -0.5470 
9     H3       0.7643  -35.9928   25.0860 H       1  LIG   0.3311   0.3700 
10    C5      -0.1450  -36.0180   23.4080 C.2     1  LIG   0.7361   0.5438 
11    C6      -0.1190  -36.0770   21.8860 C.ar    1  LIG  -0.2550   0.0862 
12    C7      -1.1230  -35.3990   21.1890 C.ar    1  LIG  -0.0321  -0.1500 
13    H4      -1.7552  -34.6955   21.7041 H       1  LIG   0.1623   0.1500 
14    C8      -1.2960  -35.6300   19.8690 C.ar    1  LIG  -0.2723  -0.1500 
15    H5      -2.0662  -35.1073   19.3273 H       1  LIG   0.1522   0.1500 
16    C9      -0.4670  -36.5450   19.2400 C.ar    1  LIG   0.4373   0.1600 
17    H6      -0.5947  -36.7554   18.1915 H       1  LIG   0.0280   0.1500 
18    N3       0.5220  -37.2120   19.8740 N.ar    1  LIG  -0.6893  -0.6200 
19    C10      0.7040  -36.9790   21.1800 C.ar    1  LIG   0.6480   0.4100 
20    N4       1.7670  -37.6730   21.8260 N.pl3   1  LIG  -0.6924  -0.3690 
21    C11      2.7540  -36.8570   22.5840 C.ar    1  LIG   0.5805   0.4100 
22    C12      2.9040  -34.5090   25.6010 C.3     1  LIG  -0.0620   0.1435 
23    H7       2.2235  -33.7630   25.2820 H       1  LIG   0.0570   0.0000 
24    H8       2.4436  -35.1154   26.3371 H       1  LIG   0.0495   0.0000 
25    H9       3.7654  -34.0491   26.0108 H       1  LIG   0.0519   0.0000 
26    O1      -1.2400  -35.9060   23.9770 O.2     1  LIG  -0.6361  -0.5700 
27    C13      2.3440  -38.7570   21.0360 C.3     1  LIG   0.1354   0.0690 
28    H10      3.1238  -38.3754   20.4296 H       1  LIG   0.0981   0.1000 
29    C14      2.9380  -39.8900   21.8010 C.3     1  LIG  -0.1181  -0.2000 
30    H11      3.8890  -40.1268   21.3997 H       1  LIG   0.0732   0.1000 
31    H12      3.0430  -39.6129   22.8177 H       1  LIG   0.0789   0.1000 
32    C15      1.6390  -40.0610   21.0880 C.3     1  LIG  -0.1196  -0.2000 
33    H13      0.6832  -39.9283   21.5242 H       1  LIG   0.0807   0.1000 
34    H14      1.5292  -40.4423   20.1061 H       1  LIG   0.0733   0.1000 
@<TRIPOS>BOND
1     2     1     ar
2     3     2     1
3     4     2     ar
4     5     4     1
5     6     4     ar
6     7     6     ar
7     8     7     1
8     9     8     1
9     10    8     1
10    11    10    1
11    12    11    ar
12    13    12    1
13    14    12    ar
14    15    14    1
15    16    14    ar
16    17    16    1
17    18    16    ar
18    19    11    ar
19    19    18    ar
20    20    19    1
21    21    1     ar
22    21    7     ar
23    21    20    1
24    22    6     1
25    23    22    1
26    24    22    1
27    25    22    1
28    26    10    2
29    27    20    1
30    28    27    1
31    29    27    1
32    30    29    1
33    31    29    1
34    32    27    1
35    32    29    1
36    33    32    1
37    34    32    1
@<TRIPOS>SUBSTRUCTURE
1   LIG    1    
 
########## Name        : 1VRT.lig
########## Description : AM1BCC_CHARGES =  -0.0002 ORIGINAL_CHARGES =  -0.0000

@<TRIPOS>MOLECULE
1VRT.lig
34    37    1     0     0    
SMALL
USER_CHARGES
@<TRIPOS>ATOM
1     N1       4.0540  -36.9310   22.2210 N.ar    1  LIG  -0.6650  -0.6200 
2     C1       4.9660  -36.2380   22.9390 C.ar    1  LIG   0.3947   0.1600 
3     H1       6.0082  -36.2811   22.6707 H       1  LIG   0.0281   0.1500 
4     C2       4.6240  -35.4500   24.0360 C.ar    1  LIG  -0.2334  -0.1500 
5     H2       5.3884  -34.9151   24.5740 H       1  LIG   0.1480   0.1500 
6     C3       3.3050  -35.3690   24.4150 C.ar    1  LIG  -0.0698  -0.1435 
7     C4       2.3460  -36.0770   23.6860 C.ar    1  LIG  -0.0398   0.1170 
8     N2       0.9890  -36.0280   24.1030 N.am    1  LIG  -0.4596  -0.5470 
9     H3       0.7643  -35.9928   25.0860 H       1  LIG   0.3311   0.3700 
10    C5      -0.1450  -36.0180   23.4080 C.2     1  LIG   0.7361   0.5438 
11    C6      -0.1190  -36.0770   21.8860 C.ar    1  LIG  -0.2550   0.0862 
12    C7      -1.1230  -35.3990   21.1890 C.ar    1  LIG  -0.0321  -0.1500 
13    H4      -1.7552  -34.6955   21.7041 H       1  LIG   0.1623   0.1500 
14    C8      -1.2960  -35.6300   19.8690 C.ar    1  LIG  -0.2723  -0.1500 
15    H5      -2.0662  -35.1073   19.3273 H       1  LIG   0.1522   0.1500 
16    C9      -0.4670  -36.5450   19.2400 C.ar    1  LIG   0.4373   0.1600 
17    H6      -0.5947  -36.7554   18.1915 H       1  LIG   0.0280   0.1500 
18    N3       0.5220  -37.2120   19.8740 N.ar    1  LIG  -0.6893  -0.6200 
19    C10      0.7040  -36.9790   21.1800 C.ar    1  LIG   0.6480   0.4100 
20    N4       1.7670  -37.6730   21.8260 N.pl3   1  LIG  -0.6924  -0.3690 
21    C11      2.7540  -36.8570   22.5840 C.ar    1  LIG   0.5805   0.4100 
22    C12      2.9040  -34.5090   25.6010 C.3     1  LIG  -0.0620   0.1435 
23    H7       2.2235  -33.7630   25.2820 H       1  LIG   0.0570   0.0000 
24    H8       2.4436  -35.1154   26.3371 H       1  LIG   0.0495   0.0000 
25    H9       3.7654  -34.0491   26.0108 H       1  LIG   0.0519   0.0000 
26    O1      -1.2400  -35.9060   23.9770 O.2     1  LIG  -0.6361  -0.5700 
27    C13      2.3440  -38.7570   21.0360 C.3     1  LIG   0.1354   0.0690 
28    H10      3.1238  -38.3754   20.4296 H       1  LIG   0.0981   0.1000 
29    C14      2.9380  -39.8900   21.8010 C.3     1  LIG  -0.1181  -0.2000 
30    H11      3.8890  -40.1268   21.3997 H       1  LIG   0.0732   0.1000 
31    H12      3.0430  -39.6129   22.8177 H       1  LIG   0.0789   0.1000 
32    C15      1.6390  -40.0610   21.0880 C.3     1  LIG  -0.1196  -0.2000 
33    H13      0.6832  -39.9283   21.5242 H       1  LIG   0.0807   0.1000 
34    H14      1.5292  -40.4423   20.1061 H       1  LIG   0.0733   0.1000 
@<TRIPOS>BOND
1     2     1     ar
2     3     2     1
3     4     2     ar
4     5     4     1
5     6     4     ar
6     7     6     ar
7     8     7     1
8     9     8     1
9     10    8     1
10    11    10    1
11    12    11    ar
12    13    12    1
13    14    12    ar
14    15    14    1
15    16    14    ar
16    17    16    1
17    18    16    ar
18    19    11    ar
19    19    18    ar
20    20    19    1
21    21    1     ar
22    21    7     ar
23    21    20    1
24    22    6     1
25    23    22    1
26    24    22    1
27    25    22    1
28    26    10    2
29    27    20    1
30    28    27    1
31    29    27    1
32    30    29    1
33    31    29    1
34    32    27    1
35    32    29    1
36    33    32    1
37    34    32    1
@<TRIPOS>SUBSTRUCTURE
1   LIG    1    
 
########## Name        : 1VRT.lig
########## Description : AM1BCC_CHARGES =  -0.0002 ORIGINAL_CHARGES =  -0.0000

@<TRIPOS>MOLECULE
1VRT.lig
34    37    1     0     0    
SMALL
USER_CHARGES
@<TRIPOS>ATOM
1     N1       4.0540  -36.9310   22.2210 N.ar    1  LIG  -0.6650  -0.6200 
2     C1       4.9660  -36.2380   22.9390 C.ar    1  LIG   0.3947   0.1600 
3     H1       6.0082  -36.2811   22.6707 H       1  LIG   0.0281   0.1500 
4     C2       4.6240  -35.4500   24.0360 C.ar    1  LIG  -0.2334  -0.1500 
5     H2       5.3884  -34.9151   24.5740 H       1  LIG   0.1480   0.1500 
6     C3       3.3050  -35.3690   24.4150 C.ar    1  LIG  -0.0698  -0.1435 
7     C4       2.3460  -36.0770   23.6860 C.ar    1  LIG  -0.0398   0.1170 
8     N2       0.9890  -36.0280   24.1030 N.am    1  LIG  -0.4596  -0.5470 
9     H3       0.7643  -35.9928   25.0860 H       1  LIG   0.3311   0.3700 
10    C5      -0.1450  -36.0180   23.4080 C.2     1  LIG   0.7361   0.5438 
11    C6      -0.1190  -36.0770   21.8860 C.ar    1  LIG  -0.2550   0.0862 
12    C7      -1.1230  -35.3990   21.1890 C.ar    1  LIG  -0.0321  -0.1500 
13    H4      -1.7552  -34.6955   21.7041 H       1  LIG   0.1623   0.1500 
14    C8      -1.2960  -35.6300   19.8690 C.ar    1  LIG  -0.2723  -0.1500 
15    H5      -2.0662  -35.1073   19.3273 H       1  LIG   0.1522   0.1500 
16    C9      -0.4670  -36.5450   19.2400 C.ar    1  LIG   0.4373   0.1600 
17    H6      -0.5947  -36.7554   18.1915 H       1  LIG   0.0280   0.1500 
18    N3       0.5220  -37.2120   19.8740 N.ar    1  LIG  -0.6893  -0.6200 
19    C10      0.7040  -36.9790   21.1800 C.ar    1  LIG   0.6480   0.4100 
20    N4       1.7670  -37.6730   21.8260 N.pl3   1  LIG  -0.6924  -0.3690 
21    C11      2.7540  -36.8570   22.5840 C.ar    1  LIG   0.5805   0.4100 
22    C12      2.9040  -34.5090   25.6010 C.3     1  LIG  -0.0620   0.1435 
23    H7       2.2235  -33.7630   25.2820 H       1  LIG   0.0570   0.0000 
24    H8       2.4436  -35.1154   26.3371 H       1  LIG   0.0495   0.0000 
25    H9       3.7654  -34.0491   26.0108 H       1  LIG   0.0519   0.0000 
26    O1      -1.2400  -35.9060   23.9770 O.2     1  LIG  -0.6361  -0.5700 
27    C13      2.3440  -38.7570   21.0360 C.3     1  LIG   0.1354   0.0690 
28    H10      3.1238  -38.3754   20.4296 H       1  LIG   0.0981   0.1000 
29    C14      2.9380  -39.8900   21.8010 C.3     1  LIG  -0.1181  -0.2000 
30    H11      3.8890  -40.1268   21.3997 H       1  LIG   0.0732   0.1000 
31    H12      3.0430  -39.6129   22.8177 H       1  LIG   0.0789   0.1000 
32    C15      1.6390  -40.0610   21.0880 C.3     1  LIG  -0.1196  -0.2000 
33    H13      0.6832  -39.9283   21.5242 H       1  LIG   0.0807   0.1000 
34    H14      1.5292  -40.4423   20.1061 H       1  LIG   0.0733   0.1000 
@<TRIPOS>BOND
1     2     1     ar
2     3     2     1
3     4     2     ar
4     5     4     1
5     6     4     ar
6     7     6     ar
7     8     7     1
8     9     8     1
9     10    8     1
10    11    10    1
11    12    11    ar
12    13    12    1
13    14    12    ar
14    15    14    1
15    16    14    ar
16    17    16    1
17    18    16    ar
18    19    11    ar
19    19    18    ar
20    20    19    1
21    21    1     ar
22    21    7     ar
23    21    20    1
24    22    6     1
25    23    22    1
26    24    22    1
27    25    22    1
28    26    10    2
29    27    20    1
30    28    27    1
31    29    27    1
32    30    29    1
33    31    29    1
34    32    27    1
35    32    29    1
36    33    32    1
37    34    32    1
@<TRIPOS>SUBSTRUCTURE
1   LIG    1    
 
########## Name        : 1VRT.lig
########## Description : AM1BCC_CHARGES =  -0.0002 ORIGINAL_CHARGES =  -0.0000

@<TRIPOS>MOLECULE
1VRT.lig
34    37    1     0     0    
SMALL
USER_CHARGES
@<TRIPOS>ATOM
1     N1       4.0540  -36.9310   22.2210 N.ar    1  LIG  -0.6650  -0.6200 
2     C1       4.9660  -36.2380   22.9390 C.ar    1  LIG   0.3947   0.1600 
3     H1       6.0082  -36.2811   22.6707 H       1  LIG   0.0281   0.1500 
4     C2       4.6240  -35.4500   24.0360 C.ar    1  LIG  -0.2334  -0.1500 
5     H2       5.3884  -34.9151   24.5740 H       1  LIG   0.1480   0.1500 
6     C3       3.3050  -35.3690   24.4150 C.ar    1  LIG  -0.0698  -0.1435 
7     C4       2.3460  -36.0770   23.6860 C.ar    1  LIG  -0.0398   0.1170 
8     N2       0.9890  -36.0280   24.1030 N.am    1  LIG  -0.4596  -0.5470 
9     H3       0.7643  -35.9928   25.0860 H       1  LIG   0.3311   0.3700 
10    C5      -0.1450  -36.0180   23.4080 C.2     1  LIG   0.7361   0.5438 
11    C6      -0.1190  -36.0770   21.8860 C.ar    1  LIG  -0.2550   0.0862 
12    C7      -1.1230  -35.3990   21.1890 C.ar    1  LIG  -0.0321  -0.1500 
13    H4      -1.7552  -34.6955   21.7041 H       1  LIG   0.1623   0.1500 
14    C8      -1.2960  -35.6300   19.8690 C.ar    1  LIG  -0.2723  -0.1500 
15    H5      -2.0662  -35.1073   19.3273 H       1  LIG   0.1522   0.1500 
16    C9      -0.4670  -36.5450   19.2400 C.ar    1  LIG   0.4373   0.1600 
17    H6      -0.5947  -36.7554   18.1915 H       1  LIG   0.0280   0.1500 
18    N3       0.5220  -37.2120   19.8740 N.ar    1  LIG  -0.6893  -0.6200 
19    C10      0.7040  -36.9790   21.1800 C.ar    1  LIG   0.6480   0.4100 
20    N4       1.7670  -37.6730   21.8260 N.pl3   1  LIG  -0.6924  -0.3690 
21    C11      2.7540  -36.8570   22.5840 C.ar    1  LIG   0.5805   0.4100 
22    C12      2.9040  -34.5090   25.6010 C.3     1  LIG  -0.0620   0.1435 
23    H7       2.2235  -33.7630   25.2820 H       1  LIG   0.0570   0.0000 
24    H8       2.4436  -35.1154   26.3371 H       1  LIG   0.0495   0.0000 
25    H9       3.7654  -34.0491   26.0108 H       1  LIG   0.0519   0.0000 
26    O1      -1.2400  -35.9060   23.9770 O.2     1  LIG  -0.6361  -0.5700 
27    C13      2.3440  -38.7570   21.0360 C.3     1  LIG   0.1354   0.0690 
28    H10      3.1238  -38.3754   20.4296 H       1  LIG   0.0981   0.1000 
29    C14      2.9380  -39.8900   21.8010 C.3     1  LIG  -0.1181  -0.2000 
30    H11      3.8890  -40.1268   21.3997 H       1  LIG   0.0732   0.1000 
31    H12      3.0430  -39.6129   22.8177 H       1  LIG   0.0789   0.1000 
32    C15      1.6390  -40.0610   21.0880 C.3     1  LIG  -0.1196  -0.2000 
33    H13      0.6832  -39.9283   21.5242 H       1  LIG   0.0807   0.1000 
34    H14      1.5292  -40.4423   20.1061 H       1  LIG   0.0733   0.1000 
@<TRIPOS>BOND
1     2     1     ar
2     3     2     1
3     4     2     ar
4     5     4     1
5     6     4     ar
6     7     6     ar
7     8     7     1
8     9     8     1
9     10    8     1
10    11    10    1
11    12    11    ar
12    13    12    1
13    14    12    ar
14    15    14    1
15    16    14    ar
16    17    16    1
17    18    16    ar
18    19    11    ar
19    19    18    ar
20    20    19    1
21    21    1     ar
22    21    7     ar
23    21    20    1
24    22    6     1
25    23    22    1
26    24    22    1
27    25    22    1
28    26    10    2
29    27    20    1
30    28    27    1
31    29    27    1
32    30    29    1
33    31    29    1
34    32    27    1
35    32    29    1
36    33    32    1
37    34    32    1
@<TRIPOS>SUBSTRUCTURE
1   LIG    1    
 
########## Name        : 1VRT.lig
########## Description : AM1BCC_CHARGES =  -0.0002 ORIGINAL_CHARGES =  -0.0000

@<TRIPOS>MOLECULE
1VRT.lig
34    37    1     0     0    
SMALL
USER_CHARGES
@<TRIPOS>ATOM
1     N1       4.0540  -36.9310   22.2210 N.ar    1  LIG  -0.6650  -0.6200 
2     C1       4.9660  -36.2380   22.9390 C.ar    1  LIG   0.3947   0.1600 
3     H1       6.0082  -36.2811   22.6707 H       1  LIG   0.0281   0.1500 
4     C2       4.6240  -35.4500   24.0360 C.ar    1  LIG  -0.2334  -0.1500 
5     H2       5.3884  -34.9151   24.5740 H       1  LIG   0.1480   0.1500 
6     C3       3.3050  -35.3690   24.4150 C.ar    1  LIG  -0.0698  -0.1435 
7     C4       2.3460  -36.0770   23.6860 C.ar    1  LIG  -0.0398   0.1170 
8     N2       0.9890  -36.0280   24.1030 N.am    1  LIG  -0.4596  -0.5470 
9     H3       0.7643  -35.9928   25.0860 H       1  LIG   0.3311   0.3700 
10    C5      -0.1450  -36.0180   23.4080 C.2     1  LIG   0.7361   0.5438 
11    C6      -0.1190  -36.0770   21.8860 C.ar    1  LIG  -0.2550   0.0862 
12    C7      -1.1230  -35.3990   21.1890 C.ar    1  LIG  -0.0321  -0.1500 
13    H4      -1.7552  -34.6955   21.7041 H       1  LIG   0.1623   0.1500 
14    C8      -1.2960  -35.6300   19.8690 C.ar    1  LIG  -0.2723  -0.1500 
15    H5      -2.0662  -35.1073   19.3273 H       1  LIG   0.1522   0.1500 
16    C9      -0.4670  -36.5450   19.2400 C.ar    1  LIG   0.4373   0.1600 
17    H6      -0.5947  -36.7554   18.1915 H       1  LIG   0.0280   0.1500 
18    N3       0.5220  -37.2120   19.8740 N.ar    1  LIG  -0.6893  -0.6200 
19    C10      0.7040  -36.9790   21.1800 C.ar    1  LIG   0.6480   0.4100 
20    N4       1.7670  -37.6730   21.8260 N.pl3   1  LIG  -0.6924  -0.3690 
21    C11      2.7540  -36.8570   22.5840 C.ar    1  LIG   0.5805   0.4100 
22    C12      2.9040  -34.5090   25.6010 C.3     1  LIG  -0.0620   0.1435 
23    H7       2.2235  -33.7630   25.2820 H       1  LIG   0.0570   0.0000 
24    H8       2.4436  -35.1154   26.3371 H       1  LIG   0.0495   0.0000 
25    H9       3.7654  -34.0491   26.0108 H       1  LIG   0.0519   0.0000 
26    O1      -1.2400  -35.9060   23.9770 O.2     1  LIG  -0.6361  -0.5700 
27    C13      2.3440  -38.7570   21.0360 C.3     1  LIG   0.1354   0.0690 
28    H10      3.1238  -38.3754   20.4296 H       1  LIG   0.0981   0.1000 
29    C14      2.9380  -39.8900   21.8010 C.3     1  LIG  -0.1181  -0.2000 
30    H11      3.8890  -40.1268   21.3997 H       1  LIG   0.0732   0.1000 
31    H12      3.0430  -39.6129   22.8177 H       1  LIG   0.0789   0.1000 
32    C15      1.6390  -40.0610   21.0880 C.3     1  LIG  -0.1196  -0.2000 
33    H13      0.6832  -39.9283   21.5242 H       1  LIG   0.0807   0.1000 
34    H14      1.5292  -40.4423   20.1061 H       1  LIG   0.0733   0.1000 
@<TRIPOS>BOND
1     2     1     ar
2     3     2     1
3     4     2     ar
4     5     4     1
5     6     4     ar
6     7     6     ar
7     8     7     1
8     9     8     1
9     10    8     1
10    11    10    1
11    12    11    ar
12    13    12    1
13    14    12    ar
14    15    14    1
15    16    14    ar
16    17    16    1
17    18    16    ar
18    19    11    ar
19    19    18    ar
20    20    19    1
21    21    1     ar
22    21    7     ar
23    21    20    1
24    22    6     1
25    23    22    1
26    24    22    1
27    25    22    1
28    26    10    2
29    27    20    1
30    28    27    1
31    29    27    1
32    30    29    1
33    31    29    1
34    32    27    1
35    32    29    1
36    33    32    1
37    34    32    1
@<TRIPOS>SUBSTRUCTURE
1   LIG    1    
 
########## Name        : 1VRT.lig
########## Description : AM1BCC_CHARGES =  -0.0002 ORIGINAL_CHARGES =  -0.0000

@<TRIPOS>MOLECULE
1VRT.lig
34    37    1     0     0    
SMALL
USER_CHARGES
@<TRIPOS>ATOM
1     N1       4.0540  -36.9310   22.2210 N.ar    1  LIG  -0.6650  -0.6200 
2     C1       4.9660  -36.2380   22.9390 C.ar    1  LIG   0.3947   0.1600 
3     H1       6.0082  -36.2811   22.6707 H       1  LIG   0.0281   0.1500 
4     C2       4.6240  -35.4500   24.0360 C.ar    1  LIG  -0.2334  -0.1500 
5     H2       5.3884  -34.9151   24.5740 H       1  LIG   0.1480   0.1500 
6     C3       3.3050  -35.3690   24.4150 C.ar    1  LIG  -0.0698  -0.1435 
7     C4       2.3460  -36.0770   23.6860 C.ar    1  LIG  -0.0398   0.1170 
8     N2       0.9890  -36.0280   24.1030 N.am    1  LIG  -0.4596  -0.5470 
9     H3       0.7643  -35.9928   25.0860 H       1  LIG   0.3311   0.3700 
10    C5      -0.1450  -36.0180   23.4080 C.2     1  LIG   0.7361   0.5438 
11    C6      -0.1190  -36.0770   21.8860 C.ar    1  LIG  -0.2550   0.0862 
12    C7      -1.1230  -35.3990   21.1890 C.ar    1  LIG  -0.0321  -0.1500 
13    H4      -1.7552  -34.6955   21.7041 H       1  LIG   0.1623   0.1500 
14    C8      -1.2960  -35.6300   19.8690 C.ar    1  LIG  -0.2723  -0.1500 
15    H5      -2.0662  -35.1073   19.3273 H       1  LIG   0.1522   0.1500 
16    C9      -0.4670  -36.5450   19.2400 C.ar    1  LIG   0.4373   0.1600 
17    H6      -0.5947  -36.7554   18.1915 H       1  LIG   0.0280   0.1500 
18    N3       0.5220  -37.2120   19.8740 N.ar    1  LIG  -0.6893  -0.6200 
19    C10      0.7040  -36.9790   21.1800 C.ar    1  LIG   0.6480   0.4100 
20    N4       1.7670  -37.6730   21.8260 N.pl3   1  LIG  -0.6924  -0.3690 
21    C11      2.7540  -36.8570   22.5840 C.ar    1  LIG   0.5805   0.4100 
22    C12      2.9040  -34.5090   25.6010 C.3     1  LIG  -0.0620   0.1435 
23    H7       2.2235  -33.7630   25.2820 H       1  LIG   0.0570   0.0000 
24    H8       2.4436  -35.1154   26.3371 H       1  LIG   0.0495   0.0000 
25    H9       3.7654  -34.0491   26.0108 H       1  LIG   0.0519   0.0000 
26    O1      -1.2400  -35.9060   23.9770 O.2     1  LIG  -0.6361  -0.5700 
27    C13      2.3440  -38.7570   21.0360 C.3     1  LIG   0.1354   0.0690 
28    H10      3.1238  -38.3754   20.4296 H       1  LIG   0.0981   0.1000 
29    C14      2.9380  -39.8900   21.8010 C.3     1  LIG  -0.1181  -0.2000 
30    H11      3.8890  -40.1268   21.3997 H       1  LIG   0.0732   0.1000 
31    H12      3.0430  -39.6129   22.8177 H       1  LIG   0.0789   0.1000 
32    C15      1.6390  -40.0610   21.0880 C.3     1  LIG  -0.1196  -0.2000 
33    H13      0.6832  -39.9283   21.5242 H       1  LIG   0.0807   0.1000 
34    H14      1.5292  -40.4423   20.1061 H       1  LIG   0.0733   0.1000 
@<TRIPOS>BOND
1     2     1     ar
2     3     2     1
3     4     2     ar
4     5     4     1
5     6     4     ar
6     7     6     ar
7     8     7     1
8     9     8     1
9     10    8     1
10    11    10    1
11    12    11    ar
12    13    12    1
13    14    12    ar
14    15    14    1
15    16    14    ar
16    17    16    1
17    18    16    ar
18    19    11    ar
19    19    18    ar
20    20    19    1
21    21    1     ar
22    21    7     ar
23    21    20    1
24    22    6     1
25    23    22    1
26    24    22    1
27    25    22    1
28    26    10    2
29    27    20    1
30    28    27    1
31    29    27    1
32    30    29    1
33    31    29    1
34    32    27    1
35    32    29    1
36    33    32    1
37    34    32    1
@<TRIPOS>SUBSTRUCTURE
1   LIG    1    
 
########## Name        : 1VRT.lig
########## Description : AM1BCC_CHARGES =  -0.0002 ORIGINAL_CHARGES =  -0.0000

@<TRIPOS>MOLECULE
1VRT.lig
34    37    1     0     0    
SMALL
USER_CHARGES
@<TRIPOS>ATOM
1     N1       4.0540  -36.9310   22.2210 N.ar    1  LIG  -0.6650  -0.6200 
2     C1       4.9660  -36.2380   22.9390 C.ar    1  LIG   0.3947   0.1600 
3     H1       6.0082  -36.2811   22.6707 H       1  LIG   0.0281   0.1500 
4     C2       4.6240  -35.4500   24.0360 C.ar    1  LIG  -0.2334  -0.1500 
5     H2       5.3884  -34.9151   24.5740 H       1  LIG   0.1480   0.1500 
6     C3       3.3050  -35.3690   24.4150 C.ar    1  LIG  -0.0698  -0.1435 
7     C4       2.3460  -36.0770   23.6860 C.ar    1  LIG  -0.0398   0.1170 
8     N2       0.9890  -36.0280   24.1030 N.am    1  LIG  -0.4596  -0.5470 
9     H3       0.7643  -35.9928   25.0860 H       1  LIG   0.3311   0.3700 
10    C5      -0.1450  -36.0180   23.4080 C.2     1  LIG   0.7361   0.5438 
11    C6      -0.1190  -36.0770   21.8860 C.ar    1  LIG  -0.2550   0.0862 
12    C7      -1.1230  -35.3990   21.1890 C.ar    1  LIG  -0.0321  -0.1500 
13    H4      -1.7552  -34.6955   21.7041 H       1  LIG   0.1623   0.1500 
14    C8      -1.2960  -35.6300   19.8690 C.ar    1  LIG  -0.2723  -0.1500 
15    H5      -2.0662  -35.1073   19.3273 H       1  LIG   0.1522   0.1500 
16    C9      -0.4670  -36.5450   19.2400 C.ar    1  LIG   0.4373   0.1600 
17    H6      -0.5947  -36.7554   18.1915 H       1  LIG   0.0280   0.1500 
18    N3       0.5220  -37.2120   19.8740 N.ar    1  LIG  -0.6893  -0.6200 
19    C10      0.7040  -36.9790   21.1800 C.ar    1  LIG   0.6480   0.4100 
20    N4       1.7670  -37.6730   21.8260 N.pl3   1  LIG  -0.6924  -0.3690 
21    C11      2.7540  -36.8570   22.5840 C.ar    1  LIG   0.5805   0.4100 
22    C12      2.9040  -34.5090   25.6010 C.3     1  LIG  -0.0620   0.1435 
23    H7       2.2235  -33.7630   25.2820 H       1  LIG   0.0570   0.0000 
24    H8       2.4436  -35.1154   26.3371 H       1  LIG   0.0495   0.0000 
25    H9       3.7654  -34.0491   26.0108 H       1  LIG   0.0519   0.0000 
26    O1      -1.2400  -35.9060   23.9770 O.2     1  LIG  -0.6361  -0.5700 
27    C13      2.3440  -38.7570   21.0360 C.3     1  LIG   0.1354   0.0690 
28    H10      3.1238  -38.3754   20.4296 H       1  LIG   0.0981   0.1000 
29    C14      2.9380  -39.8900   21.8010 C.3     1  LIG  -0.1181  -0.2000 
30    H11      3.8890  -40.1268   21.3997 H       1  LIG   0.0732   0.1000 
31    H12      3.0430  -39.6129   22.8177 H       1  LIG   0.0789   0.1000 
32    C15      1.6390  -40.0610   21.0880 C.3     1  LIG  -0.1196  -0.2000 
33    H13      0.6832  -39.9283   21.5242 H       1  LIG   0.0807   0.1000 
34    H14      1.5292  -40.4423   20.1061 H       1  LIG   0.0733   0.1000 
@<TRIPOS>BOND
1     2     1     ar
2     3     2     1
3     4     2     ar
4     5     4     1
5     6     4     ar
6     7     6     ar
7     8     7     1
8     9     8     1
9     10    8     1
10    11    10    1
11    12    11    ar
12    13    12    1
13    14    12    ar
14    15    14    1
15    16    14    ar
16    17    16    1
17    18    16    ar
18    19    11    ar
19    19    18    ar
20    20    19    1
21    21    1     ar
22    21    7     ar
23    21    20    1
24    22    6     1
25    23    22    1
26    24    22    1
27    25    22    1
28    26    10    2
29    27    20    1
30    28    27    1
31    29    27    1
32    30    29    1
33    31    29    1
34    32    27    1
35    32    29    1
36    33    32    1
37    34    32    1
@<TRIPOS>SUBSTRUCTURE
1   LIG    1    
 
########## Name        : 1VRT.lig
########## Description : AM1BCC_CHARGES =  -0.0002 ORIGINAL_CHARGES =  -0.0000

@<TRIPOS>MOLECULE
1VRT.lig
34    37    1     0     0    
SMALL
USER_CHARGES
@<TRIPOS>ATOM
1     N1       4.0540  -36.9310   22.2210 N.ar    1  LIG  -0.6650  -0.6200 
2     C1       4.9660  -36.2380   22.9390 C.ar    1  LIG   0.3947   0.1600 
3     H1       6.0082  -36.2811   22.6707 H       1  LIG   0.0281   0.1500 
4     C2       4.6240  -35.4500   24.0360 C.ar    1  LIG  -0.2334  -0.1500 
5     H2       5.3884  -34.9151   24.5740 H       1  LIG   0.1480   0.1500 
6     C3       3.3050  -35.3690   24.4150 C.ar    1  LIG  -0.0698  -0.1435 
7     C4       2.3460  -36.0770   23.6860 C.ar    1  LIG  -0.0398   0.1170 
8     N2       0.9890  -36.0280   24.1030 N.am    1  LIG  -0.4596  -0.5470 
9     H3       0.7643  -35.9928   25.0860 H       1  LIG   0.3311   0.3700 
10    C5      -0.1450  -36.0180   23.4080 C.2     1  LIG   0.7361   0.5438 
11    C6      -0.1190  -36.0770   21.8860 C.ar    1  LIG  -0.2550   0.0862 
12    C7      -1.1230  -35.3990   21.1890 C.ar    1  LIG  -0.0321  -0.1500 
13    H4      -1.7552  -34.6955   21.7041 H       1  LIG   0.1623   0.1500 
14    C8      -1.2960  -35.6300   19.8690 C.ar    1  LIG  -0.2723  -0.1500 
15    H5      -2.0662  -35.1073   19.3273 H       1  LIG   0.1522   0.1500 
16    C9      -0.4670  -36.5450   19.2400 C.ar    1  LIG   0.4373   0.1600 
17    H6      -0.5947  -36.7554   18.1915 H       1  LIG   0.0280   0.1500 
18    N3       0.5220  -37.2120   19.8740 N.ar    1  LIG  -0.6893  -0.6200 
19    C10      0.7040  -36.9790   21.1800 C.ar    1  LIG   0.6480   0.4100 
20    N4       1.7670  -37.6730   21.8260 N.pl3   1  LIG  -0.6924  -0.3690 
21    C11      2.7540  -36.8570   22.5840 C.ar    1  LIG   0.5805   0.4100 
22    C12      2.9040  -34.5090   25.6010 C.3     1  LIG  -0.0620   0.1435 
23    H7       2.2235  -33.7630   25.2820 H       1  LIG   0.0570   0.0000 
24    H8       2.4436  -35.1154   26.3371 H       1  LIG   0.0495   0.0000 
25    H9       3.7654  -34.0491   26.0108 H       1  LIG   0.0519   0.0000 
26    O1      -1.2400  -35.9060   23.9770 O.2     1  LIG  -0.6361  -0.5700 
27    C13      2.3440  -38.7570   21.0360 C.3     1  LIG   0.1354   0.0690 
28    H10      3.1238  -38.3754   20.4296 H       1  LIG   0.0981   0.1000 
29    C14      2.9380  -39.8900   21.8010 C.3     1  LIG  -0.1181  -0.2000 
30    H11      3.8890  -40.1268   21.3997 H       1  LIG   0.0732   0.1000 
31    H12      3.0430  -39.6129   22.8177 H       1  LIG   0.0789   0.1000 
32    C15      1.6390  -40.0610   21.0880 C.3     1  LIG  -0.1196  -0.2000 
33    H13      0.6832  -39.9283   21.5242 H       1  LIG   0.0807   0.1000 
34    H14      1.5292  -40.4423   20.1061 H       1  LIG   0.0733   0.1000 
@<TRIPOS>BOND
1     2     1     ar
2     3     2     1
3     4     2     ar
4     5     4     1
5     6     4     ar
6     7     6     ar
7     8     7     1
8     9     8     1
9     10    8     1
10    11    10    1
11    12    11    ar
12    13    12    1
13    14    12    ar
14    15    14    1
15    16    14    ar
16    17    16    1
17    18    16    ar
18    19    11    ar
19    19    18    ar
20    20    19    1
21    21    1     ar
22    21    7     ar
23    21    20    1
24    22    6     1
25    23    22    1
26    24    22    1
27    25    22    1
28    26    10    2
29    27    20    1
30    28    27    1
31    29    27    1
32    30    29    1
33    31    29    1
34    32    27    1
35    32    29    1
36    33    32    1
37    34    32    1
@<TRIPOS>SUBSTRUCTURE
1   LIG    1    
 
########## Name        : 1VRT.lig
########## Description : AM1BCC_CHARGES =  -0.0002 ORIGINAL_CHARGES =  -0.0000

@<TRIPOS>MOLECULE
1VRT.lig
34    37    1     0     0    
SMALL
USER_CHARGES
@<TRIPOS>ATOM
1     N1       4.0540  -36.9310   22.2210 N.ar    1  LIG  -0.6650  -0.6200 
2     C1       4.9660  -36.2380   22.9390 C.ar    1  LIG   0.3947   0.1600 
3     H1       6.0082  -36.2811   22.6707 H       1  LIG   0.0281   0.1500 
4     C2       4.6240  -35.4500   24.0360 C.ar    1  LIG  -0.2334  -0.1500 
5     H2       5.3884  -34.9151   24.5740 H       1  LIG   0.1480   0.1500 
6     C3       3.3050  -35.3690   24.4150 C.ar    1  LIG  -0.0698  -0.1435 
7     C4       2.3460  -36.0770   23.6860 C.ar    1  LIG  -0.0398   0.1170 
8     N2       0.9890  -36.0280   24.1030 N.am    1  LIG  -0.4596  -0.5470 
9     H3       0.7643  -35.9928   25.0860 H       1  LIG   0.3311   0.3700 
10    C5      -0.1450  -36.0180   23.4080 C.2     1  LIG   0.7361   0.5438 
11    C6      -0.1190  -36.0770   21.8860 C.ar    1  LIG  -0.2550   0.0862 
12    C7      -1.1230  -35.3990   21.1890 C.ar    1  LIG  -0.0321  -0.1500 
13    H4      -1.7552  -34.6955   21.7041 H       1  LIG   0.1623   0.1500 
14    C8      -1.2960  -35.6300   19.8690 C.ar    1  LIG  -0.2723  -0.1500 
15    H5      -2.0662  -35.1073   19.3273 H       1  LIG   0.1522   0.1500 
16    C9      -0.4670  -36.5450   19.2400 C.ar    1  LIG   0.4373   0.1600 
17    H6      -0.5947  -36.7554   18.1915 H       1  LIG   0.0280   0.1500 
18    N3       0.5220  -37.2120   19.8740 N.ar    1  LIG  -0.6893  -0.6200 
19    C10      0.7040  -36.9790   21.1800 C.ar    1  LIG   0.6480   0.4100 
20    N4       1.7670  -37.6730   21.8260 N.pl3   1  LIG  -0.6924  -0.3690 
21    C11      2.7540  -36.8570   22.5840 C.ar    1  LIG   0.5805   0.4100 
22    C12      2.9040  -34.5090   25.6010 C.3     1  LIG  -0.0620   0.1435 
23    H7       2.2235  -33.7630   25.2820 H       1  LIG   0.0570   0.0000 
24    H8       2.4436  -35.1154   26.3371 H       1  LIG   0.0495   0.0000 
25    H9       3.7654  -34.0491   26.0108 H       1  LIG   0.0519   0.0000 
26    O1      -1.2400  -35.9060   23.9770 O.2     1  LIG  -0.6361  -0.5700 
27    C13      2.3440  -38.7570   21.0360 C.3     1  LIG   0.1354   0.0690 
28    H10      3.1238  -38.3754   20.4296 H       1  LIG   0.0981   0.1000 
29    C14      2.9380  -39.8900   21.8010 C.3     1  LIG  -0.1181  -0.2000 
30    H11      3.8890  -40.1268   21.3997 H       1  LIG   0.0732   0.1000 
31    H12      3.0430  -39.6129   22.8177 H       1  LIG   0.0789   0.1000 
32    C15      1.6390  -40.0610   21.0880 C.3     1  LIG  -0.1196  -0.2000 
33    H13      0.6832  -39.9283   21.5242 H       1  LIG   0.0807   0.1000 
34    H14      1.5292  -40.4423   20.1061 H       1  LIG   0.0733   0.1000 
@<TRIPOS>BOND
1     2     1     ar
2     3     2     1
3     4     2     ar
4     5     4     1
5     6     4     ar
6     7     6     ar
7     8     7     1
8     9     8     1
9     10    8     1
10    11    10    1
11    12    11    ar
12    13    12    1
13    14    12    ar
14    15    14    1
15    16    14    ar
16    17    16    1
17    18    16    ar
18    19    11    ar
19    19    18    ar
20    20    19    1
21    21    1     ar
22    21    7     ar
23    21    20    1
24    22    6     1
25    23    22    1
26    24    22    1
27    25    22    1
28    26    10    2
29    27    20    1
30    28    27    1
31    29    27    1
32    30    29    1
33    31    29    1
34    32    27    1
35    32    29    1
36    33    32    1
37    34    32    1
@<TRIPOS>SUBSTRUCTURE
1   LIG    1    
 
########## Name        : 1VRT.lig
########## Description : AM1BCC_CHARGES =  -0.0002 ORIGINAL_CHARGES =  -0.0000

@<TRIPOS>MOLECULE
1VRT.lig
34    37    1     0     0    
SMALL
USER_CHARGES
@<TRIPOS>ATOM
1     N1       4.0540  -36.9310   22.2210 N.ar    1  LIG  -0.6650  -0.6200 
2     C1       4.9660  -36.2380   22.9390 C.ar    1  LIG   0.3947   0.1600 
3     H1       6.0082  -36.2811   22.6707 H       1  LIG   0.0281   0.1500 
4     C2       4.6240  -35.4500   24.0360 C.ar    1  LIG  -0.2334  -0.1500 
5     H2       5.3884  -34.9151   24.5740 H       1  LIG   0.1480   0.1500 
6     C3       3.3050  -35.3690   24.4150 C.ar    1  LIG  -0.0698  -0.1435 
7     C4       2.3460  -36.0770   23.6860 C.ar    1  LIG  -0.0398   0.1170 
8     N2       0.9890  -36.0280   24.1030 N.am    1  LIG  -0.4596  -0.5470 
9     H3       0.7643  -35.9928   25.0860 H       1  LIG   0.3311   0.3700 
10    C5      -0.1450  -36.0180   23.4080 C.2     1  LIG   0.7361   0.5438 
11    C6      -0.1190  -36.0770   21.8860 C.ar    1  LIG  -0.2550   0.0862 
12    C7      -1.1230  -35.3990   21.1890 C.ar    1  LIG  -0.0321  -0.1500 
13    H4      -1.7552  -34.6955   21.7041 H       1  LIG   0.1623   0.1500 
14    C8      -1.2960  -35.6300   19.8690 C.ar    1  LIG  -0.2723  -0.1500 
15    H5      -2.0662  -35.1073   19.3273 H       1  LIG   0.1522   0.1500 
16    C9      -0.4670  -36.5450   19.2400 C.ar    1  LIG   0.4373   0.1600 
17    H6      -0.5947  -36.7554   18.1915 H       1  LIG   0.0280   0.1500 
18    N3       0.5220  -37.2120   19.8740 N.ar    1  LIG  -0.6893  -0.6200 
19    C10      0.7040  -36.9790   21.1800 C.ar    1  LIG   0.6480   0.4100 
20    N4       1.7670  -37.6730   21.8260 N.pl3   1  LIG  -0.6924  -0.3690 
21    C11      2.7540  -36.8570   22.5840 C.ar    1  LIG   0.5805   0.4100 
22    C12      2.9040  -34.5090   25.6010 C.3     1  LIG  -0.0620   0.1435 
23    H7       2.2235  -33.7630   25.2820 H       1  LIG   0.0570   0.0000 
24    H8       2.4436  -35.1154   26.3371 H       1  LIG   0.0495   0.0000 
25    H9       3.7654  -34.0491   26.0108 H       1  LIG   0.0519   0.0000 
26    O1      -1.2400  -35.9060   23.9770 O.2     1  LIG  -0.6361  -0.5700 
27    C13      2.3440  -38.7570   21.0360 C.3     1  LIG   0.1354   0.0690 
28    H10      3.1238  -38.3754   20.4296 H       1  LIG   0.0981   0.1000 
29    C14      2.9380  -39.8900   21.8010 C.3     1  LIG  -0.1181  -0.2000 
30    H11      3.8890  -40.1268   21.3997 H       1  LIG   0.0732   0.1000 
31    H12      3.0430  -39.6129   22.8177 H       1  LIG   0.0789   0.1000 
32    C15      1.6390  -40.0610   21.0880 C.3     1  LIG  -0.1196  -0.2000 
33    H13      0.6832  -39.9283   21.5242 H       1  LIG   0.0807   0.1000 
34    H14      1.5292  -40.4423   20.1061 H       1  LIG   0.0733   0.1000 
@<TRIPOS>BOND
1     2     1     ar
2     3     2     1
3     4     2     ar
4     5     4     1
5     6     4     ar
6     7     6     ar
7     8     7     1
8     9     8     1
9     10    8     1
10    11    10    1
11    12    11    ar
12    13    12    1
13    14    12    ar
14    15    14    1
15    16    14    ar
16    17    16    1
17    18    16    ar
18    19    11    ar
19    19    18    ar
20    20    19    1
21    21    1     ar
22    21    7     ar
23    21    20    1
24    22    6     1
25    23    22    1
26    24    22    1
27    25    22    1
28    26    10    2
29    27    20    1
30    28    27    1
31    29    27    1
32    30    29    1
33    31    29    1
34    32    27    1
35    32    29    1
36    33    32    1
37    34    32    1
@<TRIPOS>SUBSTRUCTURE
1   LIG    1    
 
########## Name        : 1VRT.lig
########## Description : AM1BCC_CHARGES =  -0.0002 ORIGINAL_CHARGES =  -0.0000

@<TRIPOS>MOLECULE
1VRT.lig
34    37    1     0     0    
SMALL
USER_CHARGES
@<TRIPOS>ATOM
1     N1       4.0540  -36.9310   22.2210 N.ar    1  LIG  -0.6650  -0.6200 
2     C1       4.9660  -36.2380   22.9390 C.ar    1  LIG   0.3947   0.1600 
3     H1       6.0082  -36.2811   22.6707 H       1  LIG   0.0281   0.1500 
4     C2       4.6240  -35.4500   24.0360 C.ar    1  LIG  -0.2334  -0.1500 
5     H2       5.3884  -34.9151   24.5740 H       1  LIG   0.1480   0.1500 
6     C3       3.3050  -35.3690   24.4150 C.ar    1  LIG  -0.0698  -0.1435 
7     C4       2.3460  -36.0770   23.6860 C.ar    1  LIG  -0.0398   0.1170 
8     N2       0.9890  -36.0280   24.1030 N.am    1  LIG  -0.4596  -0.5470 
9     H3       0.7643  -35.9928   25.0860 H       1  LIG   0.3311   0.3700 
10    C5      -0.1450  -36.0180   23.4080 C.2     1  LIG   0.7361   0.5438 
11    C6      -0.1190  -36.0770   21.8860 C.ar    1  LIG  -0.2550   0.0862 
12    C7      -1.1230  -35.3990   21.1890 C.ar    1  LIG  -0.0321  -0.1500 
13    H4      -1.7552  -34.6955   21.7041 H       1  LIG   0.1623   0.1500 
14    C8      -1.2960  -35.6300   19.8690 C.ar    1  LIG  -0.2723  -0.1500 
15    H5      -2.0662  -35.1073   19.3273 H       1  LIG   0.1522   0.1500 
16    C9      -0.4670  -36.5450   19.2400 C.ar    1  LIG   0.4373   0.1600 
17    H6      -0.5947  -36.7554   18.1915 H       1  LIG   0.0280   0.1500 
18    N3       0.5220  -37.2120   19.8740 N.ar    1  LIG  -0.6893  -0.6200 
19    C10      0.7040  -36.9790   21.1800 C.ar    1  LIG   0.6480   0.4100 
20    N4       1.7670  -37.6730   21.8260 N.pl3   1  LIG  -0.6924  -0.3690 
21    C11      2.7540  -36.8570   22.5840 C.ar    1  LIG   0.5805   0.4100 
22    C12      2.9040  -34.5090   25.6010 C.3     1  LIG  -0.0620   0.1435 
23    H7       2.2235  -33.7630   25.2820 H       1  LIG   0.0570   0.0000 
24    H8       2.4436  -35.1154   26.3371 H       1  LIG   0.0495   0.0000 
25    H9       3.7654  -34.0491   26.0108 H       1  LIG   0.0519   0.0000 
26    O1      -1.2400  -35.9060   23.9770 O.2     1  LIG  -0.6361  -0.5700 
27    C13      2.3440  -38.7570   21.0360 C.3     1  LIG   0.1354   0.0690 
28    H10      3.1238  -38.3754   20.4296 H       1  LIG   0.0981   0.1000 
29    C14      2.9380  -39.8900   21.8010 C.3     1  LIG  -0.1181  -0.2000 
30    H11      3.8890  -40.1268   21.3997 H       1  LIG   0.0732   0.1000 
31    H12      3.0430  -39.6129   22.8177 H       1  LIG   0.0789   0.1000 
32    C15      1.6390  -40.0610   21.0880 C.3     1  LIG  -0.1196  -0.2000 
33    H13      0.6832  -39.9283   21.5242 H       1  LIG   0.0807   0.1000 
34    H14      1.5292  -40.4423   20.1061 H       1  LIG   0.0733   0.1000 
@<TRIPOS>BOND
1     2     1     ar
2     3     2     1
3     4     2     ar
4     5     4     1
5     6     4     ar
6     7     6     ar
7     8     7     1
8     9     8     1
9     10    8     1
10    11    10    1
11    12    11    ar
12    13    12    1
13    14    12    ar
14    15    14    1
15    16    14    ar
16    17    16    1
17    18    16    ar
18    19    11    ar
19    19    18    ar
20    20    19    1
21    21    1     ar
22    21    7     ar
23    21    20    1
24    22    6     1
25    23    22    1
26    24    22    1
27    25    22    1
28    26    10    2
29    27    20    1
30    28    27    1
31    29    27    1
32    30    29    1
33    31    29    1
34    32    27    1
35    32    29    1
36    33    32    1
37    34    32    1
@<TRIPOS>SUBSTRUCTURE
1   LIG    1    
 
########## Name        : 1VRT.lig
########## Description : AM1BCC_CHARGES =  -0.0002 ORIGINAL_CHARGES =  -0.0000

@<TRIPOS>MOLECULE
1VRT.lig
34    37    1     0     0    
SMALL
USER_CHARGES
@<TRIPOS>ATOM
1     N1       4.0540  -36.9310   22.2210 N.ar    1  LIG  -0.6650  -0.6200 
2     C1       4.9660  -36.2380   22.9390 C.ar    1  LIG   0.3947   0.1600 
3     H1       6.0082  -36.2811   22.6707 H       1  LIG   0.0281   0.1500 
4     C2       4.6240  -35.4500   24.0360 C.ar    1  LIG  -0.2334  -0.1500 
5     H2       5.3884  -34.9151   24.5740 H       1  LIG   0.1480   0.1500 
6     C3       3.3050  -35.3690   24.4150 C.ar    1  LIG  -0.0698  -0.1435 
7     C4       2.3460  -36.0770   23.6860 C.ar    1  LIG  -0.0398   0.1170 
8     N2       0.9890  -36.0280   24.1030 N.am    1  LIG  -0.4596  -0.5470 
9     H3       0.7643  -35.9928   25.0860 H       1  LIG   0.3311   0.3700 
10    C5      -0.1450  -36.0180   23.4080 C.2     1  LIG   0.7361   0.5438 
11    C6      -0.1190  -36.0770   21.8860 C.ar    1  LIG  -0.2550   0.0862 
12    C7      -1.1230  -35.3990   21.1890 C.ar    1  LIG  -0.0321  -0.1500 
13    H4      -1.7552  -34.6955   21.7041 H       1  LIG   0.1623   0.1500 
14    C8      -1.2960  -35.6300   19.8690 C.ar    1  LIG  -0.2723  -0.1500 
15    H5      -2.0662  -35.1073   19.3273 H       1  LIG   0.1522   0.1500 
16    C9      -0.4670  -36.5450   19.2400 C.ar    1  LIG   0.4373   0.1600 
17    H6      -0.5947  -36.7554   18.1915 H       1  LIG   0.0280   0.1500 
18    N3       0.5220  -37.2120   19.8740 N.ar    1  LIG  -0.6893  -0.6200 
19    C10      0.7040  -36.9790   21.1800 C.ar    1  LIG   0.6480   0.4100 
20    N4       1.7670  -37.6730   21.8260 N.pl3   1  LIG  -0.6924  -0.3690 
21    C11      2.7540  -36.8570   22.5840 C.ar    1  LIG   0.5805   0.4100 
22    C12      2.9040  -34.5090   25.6010 C.3     1  LIG  -0.0620   0.1435 
23    H7       2.2235  -33.7630   25.2820 H       1  LIG   0.0570   0.0000 
24    H8       2.4436  -35.1154   26.3371 H       1  LIG   0.0495   0.0000 
25    H9       3.7654  -34.0491   26.0108 H       1  LIG   0.0519   0.0000 
26    O1      -1.2400  -35.9060   23.9770 O.2     1  LIG  -0.6361  -0.5700 
27    C13      2.3440  -38.7570   21.0360 C.3     1  LIG   0.1354   0.0690 
28    H10      3.1238  -38.3754   20.4296 H       1  LIG   0.0981   0.1000 
29    C14      2.9380  -39.8900   21.8010 C.3     1  LIG  -0.1181  -0.2000 
30    H11      3.8890  -40.1268   21.3997 H       1  LIG   0.0732   0.1000 
31    H12      3.0430  -39.6129   22.8177 H       1  LIG   0.0789   0.1000 
32    C15      1.6390  -40.0610   21.0880 C.3     1  LIG  -0.1196  -0.2000 
33    H13      0.6832  -39.9283   21.5242 H       1  LIG   0.0807   0.1000 
34    H14      1.5292  -40.4423   20.1061 H       1  LIG   0.0733   0.1000 
@<TRIPOS>BOND
1     2     1     ar
2     3     2     1
3     4     2     ar
4     5     4     1
5     6     4     ar
6     7     6     ar
7     8     7     1
8     9     8     1
9     10    8     1
10    11    10    1
11    12    11    ar
12    13    12    1
13    14    12    ar
14    15    14    1
15    16    14    ar
16    17    16    1
17    18    16    ar
18    19    11    ar
19    19    18    ar
20    20    19    1
21    21    1     ar
22    21    7     ar
23    21    20    1
24    22    6     1
25    23    22    1
26    24    22    1
27    25    22    1
28    26    10    2
29    27    20    1
30    28    27    1
31    29    27    1
32    30    29    1
33    31    29    1
34    32    27    1
35    32    29    1
36    33    32    1
37    34    32    1
@<TRIPOS>SUBSTRUCTURE
1   LIG    1    
 
########## Name        : 1VRT.lig
########## Description : AM1BCC_CHARGES =  -0.0002 ORIGINAL_CHARGES =  -0.0000

@<TRIPOS>MOLECULE
1VRT.lig
34    37    1     0     0    
SMALL
USER_CHARGES
@<TRIPOS>ATOM
1     N1       4.0540  -36.9310   22.2210 N.ar    1  LIG  -0.6650  -0.6200 
2     C1       4.9660  -36.2380   22.9390 C.ar    1  LIG   0.3947   0.1600 
3     H1       6.0082  -36.2811   22.6707 H       1  LIG   0.0281   0.1500 
4     C2       4.6240  -35.4500   24.0360 C.ar    1  LIG  -0.2334  -0.1500 
5     H2       5.3884  -34.9151   24.5740 H       1  LIG   0.1480   0.1500 
6     C3       3.3050  -35.3690   24.4150 C.ar    1  LIG  -0.0698  -0.1435 
7     C4       2.3460  -36.0770   23.6860 C.ar    1  LIG  -0.0398   0.1170 
8     N2       0.9890  -36.0280   24.1030 N.am    1  LIG  -0.4596  -0.5470 
9     H3       0.7643  -35.9928   25.0860 H       1  LIG   0.3311   0.3700 
10    C5      -0.1450  -36.0180   23.4080 C.2     1  LIG   0.7361   0.5438 
11    C6      -0.1190  -36.0770   21.8860 C.ar    1  LIG  -0.2550   0.0862 
12    C7      -1.1230  -35.3990   21.1890 C.ar    1  LIG  -0.0321  -0.1500 
13    H4      -1.7552  -34.6955   21.7041 H       1  LIG   0.1623   0.1500 
14    C8      -1.2960  -35.6300   19.8690 C.ar    1  LIG  -0.2723  -0.1500 
15    H5      -2.0662  -35.1073   19.3273 H       1  LIG   0.1522   0.1500 
16    C9      -0.4670  -36.5450   19.2400 C.ar    1  LIG   0.4373   0.1600 
17    H6      -0.5947  -36.7554   18.1915 H       1  LIG   0.0280   0.1500 
18    N3       0.5220  -37.2120   19.8740 N.ar    1  LIG  -0.6893  -0.6200 
19    C10      0.7040  -36.9790   21.1800 C.ar    1  LIG   0.6480   0.4100 
20    N4       1.7670  -37.6730   21.8260 N.pl3   1  LIG  -0.6924  -0.3690 
21    C11      2.7540  -36.8570   22.5840 C.ar    1  LIG   0.5805   0.4100 
22    C12      2.9040  -34.5090   25.6010 C.3     1  LIG  -0.0620   0.1435 
23    H7       2.2235  -33.7630   25.2820 H       1  LIG   0.0570   0.0000 
24    H8       2.4436  -35.1154   26.3371 H       1  LIG   0.0495   0.0000 
25    H9       3.7654  -34.0491   26.0108 H       1  LIG   0.0519   0.0000 
26    O1      -1.2400  -35.9060   23.9770 O.2     1  LIG  -0.6361  -0.5700 
27    C13      2.3440  -38.7570   21.0360 C.3     1  LIG   0.1354   0.0690 
28    H10      3.1238  -38.3754   20.4296 H       1  LIG   0.0981   0.1000 
29    C14      2.9380  -39.8900   21.8010 C.3     1  LIG  -0.1181  -0.2000 
30    H11      3.8890  -40.1268   21.3997 H       1  LIG   0.0732   0.1000 
31    H12      3.0430  -39.6129   22.8177 H       1  LIG   0.0789   0.1000 
32    C15      1.6390  -40.0610   21.0880 C.3     1  LIG  -0.1196  -0.2000 
33    H13      0.6832  -39.9283   21.5242 H       1  LIG   0.0807   0.1000 
34    H14      1.5292  -40.4423   20.1061 H       1  LIG   0.0733   0.1000 
@<TRIPOS>BOND
1     2     1     ar
2     3     2     1
3     4     2     ar
4     5     4     1
5     6     4     ar
6     7     6     ar
7     8     7     1
8     9     8     1
9     10    8     1
10    11    10    1
11    12    11    ar
12    13    12    1
13    14    12    ar
14    15    14    1
15    16    14    ar
16    17    16    1
17    18    16    ar
18    19    11    ar
19    19    18    ar
20    20    19    1
21    21    1     ar
22    21    7     ar
23    21    20    1
24    22    6     1
25    23    22    1
26    24    22    1
27    25    22    1
28    26    10    2
29    27    20    1
30    28    27    1
31    29    27    1
32    30    29    1
33    31    29    1
34    32    27    1
35    32    29    1
36    33    32    1
37    34    32    1
@<TRIPOS>SUBSTRUCTURE
1   LIG    1    
 
########## Name        : 1VRT.lig
########## Description : AM1BCC_CHARGES =  -0.0002 ORIGINAL_CHARGES =  -0.0000

@<TRIPOS>MOLECULE
1VRT.lig
34    37    1     0     0    
SMALL
USER_CHARGES
@<TRIPOS>ATOM
1     N1       4.0540  -36.9310   22.2210 N.ar    1  LIG  -0.6650  -0.6200 
2     C1       4.9660  -36.2380   22.9390 C.ar    1  LIG   0.3947   0.1600 
3     H1       6.0082  -36.2811   22.6707 H       1  LIG   0.0281   0.1500 
4     C2       4.6240  -35.4500   24.0360 C.ar    1  LIG  -0.2334  -0.1500 
5     H2       5.3884  -34.9151   24.5740 H       1  LIG   0.1480   0.1500 
6     C3       3.3050  -35.3690   24.4150 C.ar    1  LIG  -0.0698  -0.1435 
7     C4       2.3460  -36.0770   23.6860 C.ar    1  LIG  -0.0398   0.1170 
8     N2       0.9890  -36.0280   24.1030 N.am    1  LIG  -0.4596  -0.5470 
9     H3       0.7643  -35.9928   25.0860 H       1  LIG   0.3311   0.3700 
10    C5      -0.1450  -36.0180   23.4080 C.2     1  LIG   0.7361   0.5438 
11    C6      -0.1190  -36.0770   21.8860 C.ar    1  LIG  -0.2550   0.0862 
12    C7      -1.1230  -35.3990   21.1890 C.ar    1  LIG  -0.0321  -0.1500 
13    H4      -1.7552  -34.6955   21.7041 H       1  LIG   0.1623   0.1500 
14    C8      -1.2960  -35.6300   19.8690 C.ar    1  LIG  -0.2723  -0.1500 
15    H5      -2.0662  -35.1073   19.3273 H       1  LIG   0.1522   0.1500 
16    C9      -0.4670  -36.5450   19.2400 C.ar    1  LIG   0.4373   0.1600 
17    H6      -0.5947  -36.7554   18.1915 H       1  LIG   0.0280   0.1500 
18    N3       0.5220  -37.2120   19.8740 N.ar    1  LIG  -0.6893  -0.6200 
19    C10      0.7040  -36.9790   21.1800 C.ar    1  LIG   0.6480   0.4100 
20    N4       1.7670  -37.6730   21.8260 N.pl3   1  LIG  -0.6924  -0.3690 
21    C11      2.7540  -36.8570   22.5840 C.ar    1  LIG   0.5805   0.4100 
22    C12      2.9040  -34.5090   25.6010 C.3     1  LIG  -0.0620   0.1435 
23    H7       2.2235  -33.7630   25.2820 H       1  LIG   0.0570   0.0000 
24    H8       2.4436  -35.1154   26.3371 H       1  LIG   0.0495   0.0000 
25    H9       3.7654  -34.0491   26.0108 H       1  LIG   0.0519   0.0000 
26    O1      -1.2400  -35.9060   23.9770 O.2     1  LIG  -0.6361  -0.5700 
27    C13      2.3440  -38.7570   21.0360 C.3     1  LIG   0.1354   0.0690 
28    H10      3.1238  -38.3754   20.4296 H       1  LIG   0.0981   0.1000 
29    C14      2.9380  -39.8900   21.8010 C.3     1  LIG  -0.1181  -0.2000 
30    H11      3.8890  -40.1268   21.3997 H       1  LIG   0.0732   0.1000 
31    H12      3.0430  -39.6129   22.8177 H       1  LIG   0.0789   0.1000 
32    C15      1.6390  -40.0610   21.0880 C.3     1  LIG  -0.1196  -0.2000 
33    H13      0.6832  -39.9283   21.5242 H       1  LIG   0.0807   0.1000 
34    H14      1.5292  -40.4423   20.1061 H       1  LIG   0.0733   0.1000 
@<TRIPOS>BOND
1     2     1     ar
2     3     2     1
3     4     2     ar
4     5     4     1
5     6     4     ar
6     7     6     ar
7     8     7     1
8     9     8     1
9     10    8     1
10    11    10    1
11    12    11    ar
12    13    12    1
13    14    12    ar
14    15    14    1
15    16    14    ar
16    17    16    1
17    18    16    ar
18    19    11    ar
19    19    18    ar
20    20    19    1
21    21    1     ar
22    21    7     ar
23    21    20    1
24    22    6     1
25    23    22    1
26    24    22    1
27    25    22    1
28    26    10    2
29    27    20    1
30    28    27    1
31    29    27    1
32    30    29    1
33    31    29    1
34    32    27    1
35    32    29    1
36    33    32    1
37    34    32    1
@<TRIPOS>SUBSTRUCTURE
1   LIG    1    
 
########## Name        : 1VRT.lig
########## Description : AM1BCC_CHARGES =  -0.0002 ORIGINAL_CHARGES =  -0.0000

@<TRIPOS>MOLECULE
1VRT.lig
34    37    1     0     0    
SMALL
USER_CHARGES
@<TRIPOS>ATOM
1     N1       4.0540  -36.9310   22.2210 N.ar    1  LIG  -0.6650  -0.6200 
2     C1       4.9660  -36.2380   22.9390 C.ar    1  LIG   0.3947   0.1600 
3     H1       6.0082  -36.2811   22.6707 H       1  LIG   0.0281   0.1500 
4     C2       4.6240  -35.4500   24.0360 C.ar    1  LIG  -0.2334  -0.1500 
5     H2       5.3884  -34.9151   24.5740 H       1  LIG   0.1480   0.1500 
6     C3       3.3050  -35.3690   24.4150 C.ar    1  LIG  -0.0698  -0.1435 
7     C4       2.3460  -36.0770   23.6860 C.ar    1  LIG  -0.0398   0.1170 
8     N2       0.9890  -36.0280   24.1030 N.am    1  LIG  -0.4596  -0.5470 
9     H3       0.7643  -35.9928   25.0860 H       1  LIG   0.3311   0.3700 
10    C5      -0.1450  -36.0180   23.4080 C.2     1  LIG   0.7361   0.5438 
11    C6      -0.1190  -36.0770   21.8860 C.ar    1  LIG  -0.2550   0.0862 
12    C7      -1.1230  -35.3990   21.1890 C.ar    1  LIG  -0.0321  -0.1500 
13    H4      -1.7552  -34.6955   21.7041 H       1  LIG   0.1623   0.1500 
14    C8      -1.2960  -35.6300   19.8690 C.ar    1  LIG  -0.2723  -0.1500 
15    H5      -2.0662  -35.1073   19.3273 H       1  LIG   0.1522   0.1500 
16    C9      -0.4670  -36.5450   19.2400 C.ar    1  LIG   0.4373   0.1600 
17    H6      -0.5947  -36.7554   18.1915 H       1  LIG   0.0280   0.1500 
18    N3       0.5220  -37.2120   19.8740 N.ar    1  LIG  -0.6893  -0.6200 
19    C10      0.7040  -36.9790   21.1800 C.ar    1  LIG   0.6480   0.4100 
20    N4       1.7670  -37.6730   21.8260 N.pl3   1  LIG  -0.6924  -0.3690 
21    C11      2.7540  -36.8570   22.5840 C.ar    1  LIG   0.5805   0.4100 
22    C12      2.9040  -34.5090   25.6010 C.3     1  LIG  -0.0620   0.1435 
23    H7       2.2235  -33.7630   25.2820 H       1  LIG   0.0570   0.0000 
24    H8       2.4436  -35.1154   26.3371 H       1  LIG   0.0495   0.0000 
25    H9       3.7654  -34.0491   26.0108 H       1  LIG   0.0519   0.0000 
26    O1      -1.2400  -35.9060   23.9770 O.2     1  LIG  -0.6361  -0.5700 
27    C13      2.3440  -38.7570   21.0360 C.3     1  LIG   0.1354   0.0690 
28    H10      3.1238  -38.3754   20.4296 H       1  LIG   0.0981   0.1000 
29    C14      2.9380  -39.8900   21.8010 C.3     1  LIG  -0.1181  -0.2000 
30    H11      3.8890  -40.1268   21.3997 H       1  LIG   0.0732   0.1000 
31    H12      3.0430  -39.6129   22.8177 H       1  LIG   0.0789   0.1000 
32    C15      1.6390  -40.0610   21.0880 C.3     1  LIG  -0.1196  -0.2000 
33    H13      0.6832  -39.9283   21.5242 H       1  LIG   0.0807   0.1000 
34    H14      1.5292  -40.4423   20.1061 H       1  LIG   0.0733   0.1000 
@<TRIPOS>BOND
1     2     1     ar
2     3     2     1
3     4     2     ar
4     5     4     1
5     6     4     ar
6     7     6     ar
7     8     7     1
8     9     8     1
9     10    8     1
10    11    10    1
11    12    11    ar
12    13    12    1
13    14    12    ar
14    15    14    1
15    16    14    ar
16    17    16    1
17    18    16    ar
18    19    11    ar
19    19    18    ar
20    20    19    1
21    21    1     ar
22    21    7     ar
23    21    20    1
24    22    6     1
25    23    22    1
26    24    22    1
27    25    22    1
28    26    10    2
29    27    20    1
30    28    27    1
31    29    27    1
32    30    29    1
33    31    29    1
34    32    27    1
35    32    29    1
36    33    32    1
37    34    32    1
@<TRIPOS>SUBSTRUCTURE
1   LIG    1    
 
########## Name        : 1VRT.lig
########## Description : AM1BCC_CHARGES =  -0.0002 ORIGINAL_CHARGES =  -0.0000

@<TRIPOS>MOLECULE
1VRT.lig
34    37    1     0     0    
SMALL
USER_CHARGES
@<TRIPOS>ATOM
1     N1       4.0540  -36.9310   22.2210 N.ar    1  LIG  -0.6650  -0.6200 
2     C1       4.9660  -36.2380   22.9390 C.ar    1  LIG   0.3947   0.1600 
3     H1       6.0082  -36.2811   22.6707 H       1  LIG   0.0281   0.1500 
4     C2       4.6240  -35.4500   24.0360 C.ar    1  LIG  -0.2334  -0.1500 
5     H2       5.3884  -34.9151   24.5740 H       1  LIG   0.1480   0.1500 
6     C3       3.3050  -35.3690   24.4150 C.ar    1  LIG  -0.0698  -0.1435 
7     C4       2.3460  -36.0770   23.6860 C.ar    1  LIG  -0.0398   0.1170 
8     N2       0.9890  -36.0280   24.1030 N.am    1  LIG  -0.4596  -0.5470 
9     H3       0.7643  -35.9928   25.0860 H       1  LIG   0.3311   0.3700 
10    C5      -0.1450  -36.0180   23.4080 C.2     1  LIG   0.7361   0.5438 
11    C6      -0.1190  -36.0770   21.8860 C.ar    1  LIG  -0.2550   0.0862 
12    C7      -1.1230  -35.3990   21.1890 C.ar    1  LIG  -0.0321  -0.1500 
13    H4      -1.7552  -34.6955   21.7041 H       1  LIG   0.1623   0.1500 
14    C8      -1.2960  -35.6300   19.8690 C.ar    1  LIG  -0.2723  -0.1500 
15    H5      -2.0662  -35.1073   19.3273 H       1  LIG   0.1522   0.1500 
16    C9      -0.4670  -36.5450   19.2400 C.ar    1  LIG   0.4373   0.1600 
17    H6      -0.5947  -36.7554   18.1915 H       1  LIG   0.0280   0.1500 
18    N3       0.5220  -37.2120   19.8740 N.ar    1  LIG  -0.6893  -0.6200 
19    C10      0.7040  -36.9790   21.1800 C.ar    1  LIG   0.6480   0.4100 
20    N4       1.7670  -37.6730   21.8260 N.pl3   1  LIG  -0.6924  -0.3690 
21    C11      2.7540  -36.8570   22.5840 C.ar    1  LIG   0.5805   0.4100 
22    C12      2.9040  -34.5090   25.6010 C.3     1  LIG  -0.0620   0.1435 
23    H7       2.2235  -33.7630   25.2820 H       1  LIG   0.0570   0.0000 
24    H8       2.4436  -35.1154   26.3371 H       1  LIG   0.0495   0.0000 
25    H9       3.7654  -34.0491   26.0108 H       1  LIG   0.0519   0.0000 
26    O1      -1.2400  -35.9060   23.9770 O.2     1  LIG  -0.6361  -0.5700 
27    C13      2.3440  -38.7570   21.0360 C.3     1  LIG   0.1354   0.0690 
28    H10      3.1238  -38.3754   20.4296 H       1  LIG   0.0981   0.1000 
29    C14      2.9380  -39.8900   21.8010 C.3     1  LIG  -0.1181  -0.2000 
30    H11      3.8890  -40.1268   21.3997 H       1  LIG   0.0732   0.1000 
31    H12      3.0430  -39.6129   22.8177 H       1  LIG   0.0789   0.1000 
32    C15      1.6390  -40.0610   21.0880 C.3     1  LIG  -0.1196  -0.2000 
33    H13      0.6832  -39.9283   21.5242 H       1  LIG   0.0807   0.1000 
34    H14      1.5292  -40.4423   20.1061 H       1  LIG   0.0733   0.1000 
@<TRIPOS>BOND
1     2     1     ar
2     3     2     1
3     4     2     ar
4     5     4     1
5     6     4     ar
6     7     6     ar
7     8     7     1
8     9     8     1
9     10    8     1
10    11    10    1
11    12    11    ar
12    13    12    1
13    14    12    ar
14    15    14    1
15    16    14    ar
16    17    16    1
17    18    16    ar
18    19    11    ar
19    19    18    ar
20    20    19    1
21    21    1     ar
22    21    7     ar
23    21    20    1
24    22    6     1
25    23    22    1
26    24    22    1
27    25    22    1
28    26    10    2
29    27    20    1
30    28    27    1
31    29    27    1
32    30    29    1
33    31    29    1
34    32    27    1
35    32    29    1
36    33    32    1
37    34    32    1
@<TRIPOS>SUBSTRUCTURE
1   LIG    1    
 
########## Name        : 1VRT.lig
########## Description : AM1BCC_CHARGES =  -0.0002 ORIGINAL_CHARGES =  -0.0000

@<TRIPOS>MOLECULE
1VRT.lig
34    37    1     0     0    
SMALL
USER_CHARGES
@<TRIPOS>ATOM
1     N1       4.0540  -36.9310   22.2210 N.ar    1  LIG  -0.6650  -0.6200 
2     C1       4.9660  -36.2380   22.9390 C.ar    1  LIG   0.3947   0.1600 
3     H1       6.0082  -36.2811   22.6707 H       1  LIG   0.0281   0.1500 
4     C2       4.6240  -35.4500   24.0360 C.ar    1  LIG  -0.2334  -0.1500 
5     H2       5.3884  -34.9151   24.5740 H       1  LIG   0.1480   0.1500 
6     C3       3.3050  -35.3690   24.4150 C.ar    1  LIG  -0.0698  -0.1435 
7     C4       2.3460  -36.0770   23.6860 C.ar    1  LIG  -0.0398   0.1170 
8     N2       0.9890  -36.0280   24.1030 N.am    1  LIG  -0.4596  -0.5470 
9     H3       0.7643  -35.9928   25.0860 H       1  LIG   0.3311   0.3700 
10    C5      -0.1450  -36.0180   23.4080 C.2     1  LIG   0.7361   0.5438 
11    C6      -0.1190  -36.0770   21.8860 C.ar    1  LIG  -0.2550   0.0862 
12    C7      -1.1230  -35.3990   21.1890 C.ar    1  LIG  -0.0321  -0.1500 
13    H4      -1.7552  -34.6955   21.7041 H       1  LIG   0.1623   0.1500 
14    C8      -1.2960  -35.6300   19.8690 C.ar    1  LIG  -0.2723  -0.1500 
15    H5      -2.0662  -35.1073   19.3273 H       1  LIG   0.1522   0.1500 
16    C9      -0.4670  -36.5450   19.2400 C.ar    1  LIG   0.4373   0.1600 
17    H6      -0.5947  -36.7554   18.1915 H       1  LIG   0.0280   0.1500 
18    N3       0.5220  -37.2120   19.8740 N.ar    1  LIG  -0.6893  -0.6200 
19    C10      0.7040  -36.9790   21.1800 C.ar    1  LIG   0.6480   0.4100 
20    N4       1.7670  -37.6730   21.8260 N.pl3   1  LIG  -0.6924  -0.3690 
21    C11      2.7540  -36.8570   22.5840 C.ar    1  LIG   0.5805   0.4100 
22    C12      2.9040  -34.5090   25.6010 C.3     1  LIG  -0.0620   0.1435 
23    H7       2.2235  -33.7630   25.2820 H       1  LIG   0.0570   0.0000 
24    H8       2.4436  -35.1154   26.3371 H       1  LIG   0.0495   0.0000 
25    H9       3.7654  -34.0491   26.0108 H       1  LIG   0.0519   0.0000 
26    O1      -1.2400  -35.9060   23.9770 O.2     1  LIG  -0.6361  -0.5700 
27    C13      2.3440  -38.7570   21.0360 C.3     1  LIG   0.1354   0.0690 
28    H10      3.1238  -38.3754   20.4296 H       1  LIG   0.0981   0.1000 
29    C14      2.9380  -39.8900   21.8010 C.3     1  LIG  -0.1181  -0.2000 
30    H11      3.8890  -40.1268   21.3997 H       1  LIG   0.0732   0.1000 
31    H12      3.0430  -39.6129   22.8177 H       1  LIG   0.0789   0.1000 
32    C15      1.6390  -40.0610   21.0880 C.3     1  LIG  -0.1196  -0.2000 
33    H13      0.6832  -39.9283   21.5242 H       1  LIG   0.0807   0.1000 
34    H14      1.5292  -40.4423   20.1061 H       1  LIG   0.0733   0.1000 
@<TRIPOS>BOND
1     2     1     ar
2     3     2     1
3     4     2     ar
4     5     4     1
5     6     4     ar
6     7     6     ar
7     8     7     1
8     9     8     1
9     10    8     1
10    11    10    1
11    12    11    ar
12    13    12    1
13    14    12    ar
14    15    14    1
15    16    14    ar
16    17    16    1
17    18    16    ar
18    19    11    ar
19    19    18    ar
20    20    19    1
21    21    1     ar
22    21    7     ar
23    21    20    1
24    22    6     1
25    23    22    1
26    24    22    1
27    25    22    1
28    26    10    2
29    27    20    1
30    28    27    1
31    29    27    1
32    30    29    1
33    31    29    1
34    32    27    1
35    32    29    1
36    33    32    1
37    34    32    1
@<TRIPOS>SUBSTRUCTURE
1   LIG    1    
 
########## Name        : 1VRT.lig
########## Description : AM1BCC_CHARGES =  -0.0002 ORIGINAL_CHARGES =  -0.0000

@<TRIPOS>MOLECULE
1VRT.lig
34    37    1     0     0    
SMALL
USER_CHARGES
@<TRIPOS>ATOM
1     N1       4.0540  -36.9310   22.2210 N.ar    1  LIG  -0.6650  -0.6200 
2     C1       4.9660  -36.2380   22.9390 C.ar    1  LIG   0.3947   0.1600 
3     H1       6.0082  -36.2811   22.6707 H       1  LIG   0.0281   0.1500 
4     C2       4.6240  -35.4500   24.0360 C.ar    1  LIG  -0.2334  -0.1500 
5     H2       5.3884  -34.9151   24.5740 H       1  LIG   0.1480   0.1500 
6     C3       3.3050  -35.3690   24.4150 C.ar    1  LIG  -0.0698  -0.1435 
7     C4       2.3460  -36.0770   23.6860 C.ar    1  LIG  -0.0398   0.1170 
8     N2       0.9890  -36.0280   24.1030 N.am    1  LIG  -0.4596  -0.5470 
9     H3       0.7643  -35.9928   25.0860 H       1  LIG   0.3311   0.3700 
10    C5      -0.1450  -36.0180   23.4080 C.2     1  LIG   0.7361   0.5438 
11    C6      -0.1190  -36.0770   21.8860 C.ar    1  LIG  -0.2550   0.0862 
12    C7      -1.1230  -35.3990   21.1890 C.ar    1  LIG  -0.0321  -0.1500 
13    H4      -1.7552  -34.6955   21.7041 H       1  LIG   0.1623   0.1500 
14    C8      -1.2960  -35.6300   19.8690 C.ar    1  LIG  -0.2723  -0.1500 
15    H5      -2.0662  -35.1073   19.3273 H       1  LIG   0.1522   0.1500 
16    C9      -0.4670  -36.5450   19.2400 C.ar    1  LIG   0.4373   0.1600 
17    H6      -0.5947  -36.7554   18.1915 H       1  LIG   0.0280   0.1500 
18    N3       0.5220  -37.2120   19.8740 N.ar    1  LIG  -0.6893  -0.6200 
19    C10      0.7040  -36.9790   21.1800 C.ar    1  LIG   0.6480   0.4100 
20    N4       1.7670  -37.6730   21.8260 N.pl3   1  LIG  -0.6924  -0.3690 
21    C11      2.7540  -36.8570   22.5840 C.ar    1  LIG   0.5805   0.4100 
22    C12      2.9040  -34.5090   25.6010 C.3     1  LIG  -0.0620   0.1435 
23    H7       2.2235  -33.7630   25.2820 H       1  LIG   0.0570   0.0000 
24    H8       2.4436  -35.1154   26.3371 H       1  LIG   0.0495   0.0000 
25    H9       3.7654  -34.0491   26.0108 H       1  LIG   0.0519   0.0000 
26    O1      -1.2400  -35.9060   23.9770 O.2     1  LIG  -0.6361  -0.5700 
27    C13      2.3440  -38.7570   21.0360 C.3     1  LIG   0.1354   0.0690 
28    H10      3.1238  -38.3754   20.4296 H       1  LIG   0.0981   0.1000 
29    C14      2.9380  -39.8900   21.8010 C.3     1  LIG  -0.1181  -0.2000 
30    H11      3.8890  -40.1268   21.3997 H       1  LIG   0.0732   0.1000 
31    H12      3.0430  -39.6129   22.8177 H       1  LIG   0.0789   0.1000 
32    C15      1.6390  -40.0610   21.0880 C.3     1  LIG  -0.1196  -0.2000 
33    H13      0.6832  -39.9283   21.5242 H       1  LIG   0.0807   0.1000 
34    H14      1.5292  -40.4423   20.1061 H       1  LIG   0.0733   0.1000 
@<TRIPOS>BOND
1     2     1     ar
2     3     2     1
3     4     2     ar
4     5     4     1
5     6     4     ar
6     7     6     ar
7     8     7     1
8     9     8     1
9     10    8     1
10    11    10    1
11    12    11    ar
12    13    12    1
13    14    12    ar
14    15    14    1
15    16    14    ar
16    17    16    1
17    18    16    ar
18    19    11    ar
19    19    18    ar
20    20    19    1
21    21    1     ar
22    21    7     ar
23    21    20    1
24    22    6     1
25    23    22    1
26    24    22    1
27    25    22    1
28    26    10    2
29    27    20    1
30    28    27    1
31    29    27    1
32    30    29    1
33    31    29    1
34    32    27    1
35    32    29    1
36    33    32    1
37    34    32    1
@<TRIPOS>SUBSTRUCTURE
1   LIG    1    
 
########## Name        : 1VRT.lig
########## Description : AM1BCC_CHARGES =  -0.0002 ORIGINAL_CHARGES =  -0.0000

@<TRIPOS>MOLECULE
1VRT.lig
34    37    1     0     0    
SMALL
USER_CHARGES
@<TRIPOS>ATOM
1     N1       4.0540  -36.9310   22.2210 N.ar    1  LIG  -0.6650  -0.6200 
2     C1       4.9660  -36.2380   22.9390 C.ar    1  LIG   0.3947   0.1600 
3     H1       6.0082  -36.2811   22.6707 H       1  LIG   0.0281   0.1500 
4     C2       4.6240  -35.4500   24.0360 C.ar    1  LIG  -0.2334  -0.1500 
5     H2       5.3884  -34.9151   24.5740 H       1  LIG   0.1480   0.1500 
6     C3       3.3050  -35.3690   24.4150 C.ar    1  LIG  -0.0698  -0.1435 
7     C4       2.3460  -36.0770   23.6860 C.ar    1  LIG  -0.0398   0.1170 
8     N2       0.9890  -36.0280   24.1030 N.am    1  LIG  -0.4596  -0.5470 
9     H3       0.7643  -35.9928   25.0860 H       1  LIG   0.3311   0.3700 
10    C5      -0.1450  -36.0180   23.4080 C.2     1  LIG   0.7361   0.5438 
11    C6      -0.1190  -36.0770   21.8860 C.ar    1  LIG  -0.2550   0.0862 
12    C7      -1.1230  -35.3990   21.1890 C.ar    1  LIG  -0.0321  -0.1500 
13    H4      -1.7552  -34.6955   21.7041 H       1  LIG   0.1623   0.1500 
14    C8      -1.2960  -35.6300   19.8690 C.ar    1  LIG  -0.2723  -0.1500 
15    H5      -2.0662  -35.1073   19.3273 H       1  LIG   0.1522   0.1500 
16    C9      -0.4670  -36.5450   19.2400 C.ar    1  LIG   0.4373   0.1600 
17    H6      -0.5947  -36.7554   18.1915 H       1  LIG   0.0280   0.1500 
18    N3       0.5220  -37.2120   19.8740 N.ar    1  LIG  -0.6893  -0.6200 
19    C10      0.7040  -36.9790   21.1800 C.ar    1  LIG   0.6480   0.4100 
20    N4       1.7670  -37.6730   21.8260 N.pl3   1  LIG  -0.6924  -0.3690 
21    C11      2.7540  -36.8570   22.5840 C.ar    1  LIG   0.5805   0.4100 
22    C12      2.9040  -34.5090   25.6010 C.3     1  LIG  -0.0620   0.1435 
23    H7       2.2235  -33.7630   25.2820 H       1  LIG   0.0570   0.0000 
24    H8       2.4436  -35.1154   26.3371 H       1  LIG   0.0495   0.0000 
25    H9       3.7654  -34.0491   26.0108 H       1  LIG   0.0519   0.0000 
26    O1      -1.2400  -35.9060   23.9770 O.2     1  LIG  -0.6361  -0.5700 
27    C13      2.3440  -38.7570   21.0360 C.3     1  LIG   0.1354   0.0690 
28    H10      3.1238  -38.3754   20.4296 H       1  LIG   0.0981   0.1000 
29    C14      2.9380  -39.8900   21.8010 C.3     1  LIG  -0.1181  -0.2000 
30    H11      3.8890  -40.1268   21.3997 H       1  LIG   0.0732   0.1000 
31    H12      3.0430  -39.6129   22.8177 H       1  LIG   0.0789   0.1000 
32    C15      1.6390  -40.0610   21.0880 C.3     1  LIG  -0.1196  -0.2000 
33    H13      0.6832  -39.9283   21.5242 H       1  LIG   0.0807   0.1000 
34    H14      1.5292  -40.4423   20.1061 H       1  LIG   0.0733   0.1000 
@<TRIPOS>BOND
1     2     1     ar
2     3     2     1
3     4     2     ar
4     5     4     1
5     6     4     ar
6     7     6     ar
7     8     7     1
8     9     8     1
9     10    8     1
10    11    10    1
11    12    11    ar
12    13    12    1
13    14    12    ar
14    15    14    1
15    16    14    ar
16    17    16    1
17    18    16    ar
18    19    11    ar
19    19    18    ar
20    20    19    1
21    21    1     ar
22    21    7     ar
23    21    20    1
24    22    6     1
25    23    22    1
26    24    22    1
27    25    22    1
28    26    10    2
29    27    20    1
30    28    27    1
31    29    27    1
32    30    29    1
33    31    29    1
34    32    27    1
35    32    29    1
36    33    32    1
37    34    32    1
@<TRIPOS>SUBSTRUCTURE
1   LIG    1    
 
########## Name        : 1VRT.lig
########## Description : AM1BCC_CHARGES =  -0.0002 ORIGINAL_CHARGES =  -0.0000

@<TRIPOS>MOLECULE
1VRT.lig
34    37    1     0     0    
SMALL
USER_CHARGES
@<TRIPOS>ATOM
1     N1       4.0540  -36.9310   22.2210 N.ar    1  LIG  -0.6650  -0.6200 
2     C1       4.9660  -36.2380   22.9390 C.ar    1  LIG   0.3947   0.1600 
3     H1       6.0082  -36.2811   22.6707 H       1  LIG   0.0281   0.1500 
4     C2       4.6240  -35.4500   24.0360 C.ar    1  LIG  -0.2334  -0.1500 
5     H2       5.3884  -34.9151   24.5740 H       1  LIG   0.1480   0.1500 
6     C3       3.3050  -35.3690   24.4150 C.ar    1  LIG  -0.0698  -0.1435 
7     C4       2.3460  -36.0770   23.6860 C.ar    1  LIG  -0.0398   0.1170 
8     N2       0.9890  -36.0280   24.1030 N.am    1  LIG  -0.4596  -0.5470 
9     H3       0.7643  -35.9928   25.0860 H       1  LIG   0.3311   0.3700 
10    C5      -0.1450  -36.0180   23.4080 C.2     1  LIG   0.7361   0.5438 
11    C6      -0.1190  -36.0770   21.8860 C.ar    1  LIG  -0.2550   0.0862 
12    C7      -1.1230  -35.3990   21.1890 C.ar    1  LIG  -0.0321  -0.1500 
13    H4      -1.7552  -34.6955   21.7041 H       1  LIG   0.1623   0.1500 
14    C8      -1.2960  -35.6300   19.8690 C.ar    1  LIG  -0.2723  -0.1500 
15    H5      -2.0662  -35.1073   19.3273 H       1  LIG   0.1522   0.1500 
16    C9      -0.4670  -36.5450   19.2400 C.ar    1  LIG   0.4373   0.1600 
17    H6      -0.5947  -36.7554   18.1915 H       1  LIG   0.0280   0.1500 
18    N3       0.5220  -37.2120   19.8740 N.ar    1  LIG  -0.6893  -0.6200 
19    C10      0.7040  -36.9790   21.1800 C.ar    1  LIG   0.6480   0.4100 
20    N4       1.7670  -37.6730   21.8260 N.pl3   1  LIG  -0.6924  -0.3690 
21    C11      2.7540  -36.8570   22.5840 C.ar    1  LIG   0.5805   0.4100 
22    C12      2.9040  -34.5090   25.6010 C.3     1  LIG  -0.0620   0.1435 
23    H7       2.2235  -33.7630   25.2820 H       1  LIG   0.0570   0.0000 
24    H8       2.4436  -35.1154   26.3371 H       1  LIG   0.0495   0.0000 
25    H9       3.7654  -34.0491   26.0108 H       1  LIG   0.0519   0.0000 
26    O1      -1.2400  -35.9060   23.9770 O.2     1  LIG  -0.6361  -0.5700 
27    C13      2.3440  -38.7570   21.0360 C.3     1  LIG   0.1354   0.0690 
28    H10      3.1238  -38.3754   20.4296 H       1  LIG   0.0981   0.1000 
29    C14      2.9380  -39.8900   21.8010 C.3     1  LIG  -0.1181  -0.2000 
30    H11      3.8890  -40.1268   21.3997 H       1  LIG   0.0732   0.1000 
31    H12      3.0430  -39.6129   22.8177 H       1  LIG   0.0789   0.1000 
32    C15      1.6390  -40.0610   21.0880 C.3     1  LIG  -0.1196  -0.2000 
33    H13      0.6832  -39.9283   21.5242 H       1  LIG   0.0807   0.1000 
34    H14      1.5292  -40.4423   20.1061 H       1  LIG   0.0733   0.1000 
@<TRIPOS>BOND
1     2     1     ar
2     3     2     1
3     4     2     ar
4     5     4     1
5     6     4     ar
6     7     6     ar
7     8     7     1
8     9     8     1
9     10    8     1
10    11    10    1
11    12    11    ar
12    13    12    1
13    14    12    ar
14    15    14    1
15    16    14    ar
16    17    16    1
17    18    16    ar
18    19    11    ar
19    19    18    ar
20    20    19    1
21    21    1     ar
22    21    7     ar
23    21    20    1
24    22    6     1
25    23    22    1
26    24    22    1
27    25    22    1
28    26    10    2
29    27    20    1
30    28    27    1
31    29    27    1
32    30    29    1
33    31    29    1
34    32    27    1
35    32    29    1
36    33    32    1
37    34    32    1
@<TRIPOS>SUBSTRUCTURE
1   LIG    1    
 
########## Name        : 1VRT.lig
########## Description : AM1BCC_CHARGES =  -0.0002 ORIGINAL_CHARGES =  -0.0000

@<TRIPOS>MOLECULE
1VRT.lig
34    37    1     0     0    
SMALL
USER_CHARGES
@<TRIPOS>ATOM
1     N1       4.0540  -36.9310   22.2210 N.ar    1  LIG  -0.6650  -0.6200 
2     C1       4.9660  -36.2380   22.9390 C.ar    1  LIG   0.3947   0.1600 
3     H1       6.0082  -36.2811   22.6707 H       1  LIG   0.0281   0.1500 
4     C2       4.6240  -35.4500   24.0360 C.ar    1  LIG  -0.2334  -0.1500 
5     H2       5.3884  -34.9151   24.5740 H       1  LIG   0.1480   0.1500 
6     C3       3.3050  -35.3690   24.4150 C.ar    1  LIG  -0.0698  -0.1435 
7     C4       2.3460  -36.0770   23.6860 C.ar    1  LIG  -0.0398   0.1170 
8     N2       0.9890  -36.0280   24.1030 N.am    1  LIG  -0.4596  -0.5470 
9     H3       0.7643  -35.9928   25.0860 H       1  LIG   0.3311   0.3700 
10    C5      -0.1450  -36.0180   23.4080 C.2     1  LIG   0.7361   0.5438 
11    C6      -0.1190  -36.0770   21.8860 C.ar    1  LIG  -0.2550   0.0862 
12    C7      -1.1230  -35.3990   21.1890 C.ar    1  LIG  -0.0321  -0.1500 
13    H4      -1.7552  -34.6955   21.7041 H       1  LIG   0.1623   0.1500 
14    C8      -1.2960  -35.6300   19.8690 C.ar    1  LIG  -0.2723  -0.1500 
15    H5      -2.0662  -35.1073   19.3273 H       1  LIG   0.1522   0.1500 
16    C9      -0.4670  -36.5450   19.2400 C.ar    1  LIG   0.4373   0.1600 
17    H6      -0.5947  -36.7554   18.1915 H       1  LIG   0.0280   0.1500 
18    N3       0.5220  -37.2120   19.8740 N.ar    1  LIG  -0.6893  -0.6200 
19    C10      0.7040  -36.9790   21.1800 C.ar    1  LIG   0.6480   0.4100 
20    N4       1.7670  -37.6730   21.8260 N.pl3   1  LIG  -0.6924  -0.3690 
21    C11      2.7540  -36.8570   22.5840 C.ar    1  LIG   0.5805   0.4100 
22    C12      2.9040  -34.5090   25.6010 C.3     1  LIG  -0.0620   0.1435 
23    H7       2.2235  -33.7630   25.2820 H       1  LIG   0.0570   0.0000 
24    H8       2.4436  -35.1154   26.3371 H       1  LIG   0.0495   0.0000 
25    H9       3.7654  -34.0491   26.0108 H       1  LIG   0.0519   0.0000 
26    O1      -1.2400  -35.9060   23.9770 O.2     1  LIG  -0.6361  -0.5700 
27    C13      2.3440  -38.7570   21.0360 C.3     1  LIG   0.1354   0.0690 
28    H10      3.1238  -38.3754   20.4296 H       1  LIG   0.0981   0.1000 
29    C14      2.9380  -39.8900   21.8010 C.3     1  LIG  -0.1181  -0.2000 
30    H11      3.8890  -40.1268   21.3997 H       1  LIG   0.0732   0.1000 
31    H12      3.0430  -39.6129   22.8177 H       1  LIG   0.0789   0.1000 
32    C15      1.6390  -40.0610   21.0880 C.3     1  LIG  -0.1196  -0.2000 
33    H13      0.6832  -39.9283   21.5242 H       1  LIG   0.0807   0.1000 
34    H14      1.5292  -40.4423   20.1061 H       1  LIG   0.0733   0.1000 
@<TRIPOS>BOND
1     2     1     ar
2     3     2     1
3     4     2     ar
4     5     4     1
5     6     4     ar
6     7     6     ar
7     8     7     1
8     9     8     1
9     10    8     1
10    11    10    1
11    12    11    ar
12    13    12    1
13    14    12    ar
14    15    14    1
15    16    14    ar
16    17    16    1
17    18    16    ar
18    19    11    ar
19    19    18    ar
20    20    19    1
21    21    1     ar
22    21    7     ar
23    21    20    1
24    22    6     1
25    23    22    1
26    24    22    1
27    25    22    1
28    26    10    2
29    27    20    1
30    28    27    1
31    29    27    1
32    30    29    1
33    31    29    1
34    32    27    1
35    32    29    1
36    33    32    1
37    34    32    1
@<TRIPOS>SUBSTRUCTURE
1   LIG    1    
 
########## Name        : 1VRT.lig
########## Description : AM1BCC_CHARGES =  -0.0002 ORIGINAL_CHARGES =  -0.0000

@<TRIPOS>MOLECULE
1VRT.lig
34    37    1     0     0    
SMALL
USER_CHARGES
@<TRIPOS>ATOM
1     N1       4.0540  -36.9310   22.2210 N.ar    1  LIG  -0.6650  -0.6200 
2     C1       4.9660  -36.2380   22.9390 C.ar    1  LIG   0.3947   0.1600 
3     H1       6.0082  -36.2811   22.6707 H       1  LIG   0.0281   0.1500 
4     C2       4.6240  -35.4500   24.0360 C.ar    1  LIG  -0.2334  -0.1500 
5     H2       5.3884  -34.9151   24.5740 H       1  LIG   0.1480   0.1500 
6     C3       3.3050  -35.3690   24.4150 C.ar    1  LIG  -0.0698  -0.1435 
7     C4       2.3460  -36.0770   23.6860 C.ar    1  LIG  -0.0398   0.1170 
8     N2       0.9890  -36.0280   24.1030 N.am    1  LIG  -0.4596  -0.5470 
9     H3       0.7643  -35.9928   25.0860 H       1  LIG   0.3311   0.3700 
10    C5      -0.1450  -36.0180   23.4080 C.2     1  LIG   0.7361   0.5438 
11    C6      -0.1190  -36.0770   21.8860 C.ar    1  LIG  -0.2550   0.0862 
12    C7      -1.1230  -35.3990   21.1890 C.ar    1  LIG  -0.0321  -0.1500 
13    H4      -1.7552  -34.6955   21.7041 H       1  LIG   0.1623   0.1500 
14    C8      -1.2960  -35.6300   19.8690 C.ar    1  LIG  -0.2723  -0.1500 
15    H5      -2.0662  -35.1073   19.3273 H       1  LIG   0.1522   0.1500 
16    C9      -0.4670  -36.5450   19.2400 C.ar    1  LIG   0.4373   0.1600 
17    H6      -0.5947  -36.7554   18.1915 H       1  LIG   0.0280   0.1500 
18    N3       0.5220  -37.2120   19.8740 N.ar    1  LIG  -0.6893  -0.6200 
19    C10      0.7040  -36.9790   21.1800 C.ar    1  LIG   0.6480   0.4100 
20    N4       1.7670  -37.6730   21.8260 N.pl3   1  LIG  -0.6924  -0.3690 
21    C11      2.7540  -36.8570   22.5840 C.ar    1  LIG   0.5805   0.4100 
22    C12      2.9040  -34.5090   25.6010 C.3     1  LIG  -0.0620   0.1435 
23    H7       2.2235  -33.7630   25.2820 H       1  LIG   0.0570   0.0000 
24    H8       2.4436  -35.1154   26.3371 H       1  LIG   0.0495   0.0000 
25    H9       3.7654  -34.0491   26.0108 H       1  LIG   0.0519   0.0000 
26    O1      -1.2400  -35.9060   23.9770 O.2     1  LIG  -0.6361  -0.5700 
27    C13      2.3440  -38.7570   21.0360 C.3     1  LIG   0.1354   0.0690 
28    H10      3.1238  -38.3754   20.4296 H       1  LIG   0.0981   0.1000 
29    C14      2.9380  -39.8900   21.8010 C.3     1  LIG  -0.1181  -0.2000 
30    H11      3.8890  -40.1268   21.3997 H       1  LIG   0.0732   0.1000 
31    H12      3.0430  -39.6129   22.8177 H       1  LIG   0.0789   0.1000 
32    C15      1.6390  -40.0610   21.0880 C.3     1  LIG  -0.1196  -0.2000 
33    H13      0.6832  -39.9283   21.5242 H       1  LIG   0.0807   0.1000 
34    H14      1.5292  -40.4423   20.1061 H       1  LIG   0.0733   0.1000 
@<TRIPOS>BOND
1     2     1     ar
2     3     2     1
3     4     2     ar
4     5     4     1
5     6     4     ar
6     7     6     ar
7     8     7     1
8     9     8     1
9     10    8     1
10    11    10    1
11    12    11    ar
12    13    12    1
13    14    12    ar
14    15    14    1
15    16    14    ar
16    17    16    1
17    18    16    ar
18    19    11    ar
19    19    18    ar
20    20    19    1
21    21    1     ar
22    21    7     ar
23    21    20    1
24    22    6     1
25    23    22    1
26    24    22    1
27    25    22    1
28    26    10    2
29    27    20    1
30    28    27    1
31    29    27    1
32    30    29    1
33    31    29    1
34    32    27    1
35    32    29    1
36    33    32    1
37    34    32    1
@<TRIPOS>SUBSTRUCTURE
1   LIG    1    
 
########## Name        : 1VRT.lig
########## Description : AM1BCC_CHARGES =  -0.0002 ORIGINAL_CHARGES =  -0.0000

@<TRIPOS>MOLECULE
1VRT.lig
34    37    1     0     0    
SMALL
USER_CHARGES
@<TRIPOS>ATOM
1     N1       4.0540  -36.9310   22.2210 N.ar    1  LIG  -0.6650  -0.6200 
2     C1       4.9660  -36.2380   22.9390 C.ar    1  LIG   0.3947   0.1600 
3     H1       6.0082  -36.2811   22.6707 H       1  LIG   0.0281   0.1500 
4     C2       4.6240  -35.4500   24.0360 C.ar    1  LIG  -0.2334  -0.1500 
5     H2       5.3884  -34.9151   24.5740 H       1  LIG   0.1480   0.1500 
6     C3       3.3050  -35.3690   24.4150 C.ar    1  LIG  -0.0698  -0.1435 
7     C4       2.3460  -36.0770   23.6860 C.ar    1  LIG  -0.0398   0.1170 
8     N2       0.9890  -36.0280   24.1030 N.am    1  LIG  -0.4596  -0.5470 
9     H3       0.7643  -35.9928   25.0860 H       1  LIG   0.3311   0.3700 
10    C5      -0.1450  -36.0180   23.4080 C.2     1  LIG   0.7361   0.5438 
11    C6      -0.1190  -36.0770   21.8860 C.ar    1  LIG  -0.2550   0.0862 
12    C7      -1.1230  -35.3990   21.1890 C.ar    1  LIG  -0.0321  -0.1500 
13    H4      -1.7552  -34.6955   21.7041 H       1  LIG   0.1623   0.1500 
14    C8      -1.2960  -35.6300   19.8690 C.ar    1  LIG  -0.2723  -0.1500 
15    H5      -2.0662  -35.1073   19.3273 H       1  LIG   0.1522   0.1500 
16    C9      -0.4670  -36.5450   19.2400 C.ar    1  LIG   0.4373   0.1600 
17    H6      -0.5947  -36.7554   18.1915 H       1  LIG   0.0280   0.1500 
18    N3       0.5220  -37.2120   19.8740 N.ar    1  LIG  -0.6893  -0.6200 
19    C10      0.7040  -36.9790   21.1800 C.ar    1  LIG   0.6480   0.4100 
20    N4       1.7670  -37.6730   21.8260 N.pl3   1  LIG  -0.6924  -0.3690 
21    C11      2.7540  -36.8570   22.5840 C.ar    1  LIG   0.5805   0.4100 
22    C12      2.9040  -34.5090   25.6010 C.3     1  LIG  -0.0620   0.1435 
23    H7       2.2235  -33.7630   25.2820 H       1  LIG   0.0570   0.0000 
24    H8       2.4436  -35.1154   26.3371 H       1  LIG   0.0495   0.0000 
25    H9       3.7654  -34.0491   26.0108 H       1  LIG   0.0519   0.0000 
26    O1      -1.2400  -35.9060   23.9770 O.2     1  LIG  -0.6361  -0.5700 
27    C13      2.3440  -38.7570   21.0360 C.3     1  LIG   0.1354   0.0690 
28    H10      3.1238  -38.3754   20.4296 H       1  LIG   0.0981   0.1000 
29    C14      2.9380  -39.8900   21.8010 C.3     1  LIG  -0.1181  -0.2000 
30    H11      3.8890  -40.1268   21.3997 H       1  LIG   0.0732   0.1000 
31    H12      3.0430  -39.6129   22.8177 H       1  LIG   0.0789   0.1000 
32    C15      1.6390  -40.0610   21.0880 C.3     1  LIG  -0.1196  -0.2000 
33    H13      0.6832  -39.9283   21.5242 H       1  LIG   0.0807   0.1000 
34    H14      1.5292  -40.4423   20.1061 H       1  LIG   0.0733   0.1000 
@<TRIPOS>BOND
1     2     1     ar
2     3     2     1
3     4     2     ar
4     5     4     1
5     6     4     ar
6     7     6     ar
7     8     7     1
8     9     8     1
9     10    8     1
10    11    10    1
11    12    11    ar
12    13    12    1
13    14    12    ar
14    15    14    1
15    16    14    ar
16    17    16    1
17    18    16    ar
18    19    11    ar
19    19    18    ar
20    20    19    1
21    21    1     ar
22    21    7     ar
23    21    20    1
24    22    6     1
25    23    22    1
26    24    22    1
27    25    22    1
28    26    10    2
29    27    20    1
30    28    27    1
31    29    27    1
32    30    29    1
33    31    29    1
34    32    27    1
35    32    29    1
36    33    32    1
37    34    32    1
@<TRIPOS>SUBSTRUCTURE
1   LIG    1    
 
########## Name        : 1VRT.lig
########## Description : AM1BCC_CHARGES =  -0.0002 ORIGINAL_CHARGES =  -0.0000

@<TRIPOS>MOLECULE
1VRT.lig
34    37    1     0     0    
SMALL
USER_CHARGES
@<TRIPOS>ATOM
1     N1       4.0540  -36.9310   22.2210 N.ar    1  LIG  -0.6650  -0.6200 
2     C1       4.9660  -36.2380   22.9390 C.ar    1  LIG   0.3947   0.1600 
3     H1       6.0082  -36.2811   22.6707 H       1  LIG   0.0281   0.1500 
4     C2       4.6240  -35.4500   24.0360 C.ar    1  LIG  -0.2334  -0.1500 
5     H2       5.3884  -34.9151   24.5740 H       1  LIG   0.1480   0.1500 
6     C3       3.3050  -35.3690   24.4150 C.ar    1  LIG  -0.0698  -0.1435 
7     C4       2.3460  -36.0770   23.6860 C.ar    1  LIG  -0.0398   0.1170 
8     N2       0.9890  -36.0280   24.1030 N.am    1  LIG  -0.4596  -0.5470 
9     H3       0.7643  -35.9928   25.0860 H       1  LIG   0.3311   0.3700 
10    C5      -0.1450  -36.0180   23.4080 C.2     1  LIG   0.7361   0.5438 
11    C6      -0.1190  -36.0770   21.8860 C.ar    1  LIG  -0.2550   0.0862 
12    C7      -1.1230  -35.3990   21.1890 C.ar    1  LIG  -0.0321  -0.1500 
13    H4      -1.7552  -34.6955   21.7041 H       1  LIG   0.1623   0.1500 
14    C8      -1.2960  -35.6300   19.8690 C.ar    1  LIG  -0.2723  -0.1500 
15    H5      -2.0662  -35.1073   19.3273 H       1  LIG   0.1522   0.1500 
16    C9      -0.4670  -36.5450   19.2400 C.ar    1  LIG   0.4373   0.1600 
17    H6      -0.5947  -36.7554   18.1915 H       1  LIG   0.0280   0.1500 
18    N3       0.5220  -37.2120   19.8740 N.ar    1  LIG  -0.6893  -0.6200 
19    C10      0.7040  -36.9790   21.1800 C.ar    1  LIG   0.6480   0.4100 
20    N4       1.7670  -37.6730   21.8260 N.pl3   1  LIG  -0.6924  -0.3690 
21    C11      2.7540  -36.8570   22.5840 C.ar    1  LIG   0.5805   0.4100 
22    C12      2.9040  -34.5090   25.6010 C.3     1  LIG  -0.0620   0.1435 
23    H7       2.2235  -33.7630   25.2820 H       1  LIG   0.0570   0.0000 
24    H8       2.4436  -35.1154   26.3371 H       1  LIG   0.0495   0.0000 
25    H9       3.7654  -34.0491   26.0108 H       1  LIG   0.0519   0.0000 
26    O1      -1.2400  -35.9060   23.9770 O.2     1  LIG  -0.6361  -0.5700 
27    C13      2.3440  -38.7570   21.0360 C.3     1  LIG   0.1354   0.0690 
28    H10      3.1238  -38.3754   20.4296 H       1  LIG   0.0981   0.1000 
29    C14      2.9380  -39.8900   21.8010 C.3     1  LIG  -0.1181  -0.2000 
30    H11      3.8890  -40.1268   21.3997 H       1  LIG   0.0732   0.1000 
31    H12      3.0430  -39.6129   22.8177 H       1  LIG   0.0789   0.1000 
32    C15      1.6390  -40.0610   21.0880 C.3     1  LIG  -0.1196  -0.2000 
33    H13      0.6832  -39.9283   21.5242 H       1  LIG   0.0807   0.1000 
34    H14      1.5292  -40.4423   20.1061 H       1  LIG   0.0733   0.1000 
@<TRIPOS>BOND
1     2     1     ar
2     3     2     1
3     4     2     ar
4     5     4     1
5     6     4     ar
6     7     6     ar
7     8     7     1
8     9     8     1
9     10    8     1
10    11    10    1
11    12    11    ar
12    13    12    1
13    14    12    ar
14    15    14    1
15    16    14    ar
16    17    16    1
17    18    16    ar
18    19    11    ar
19    19    18    ar
20    20    19    1
21    21    1     ar
22    21    7     ar
23    21    20    1
24    22    6     1
25    23    22    1
26    24    22    1
27    25    22    1
28    26    10    2
29    27    20    1
30    28    27    1
31    29    27    1
32    30    29    1
33    31    29    1
34    32    27    1
35    32    29    1
36    33    32    1
37    34    32    1
@<TRIPOS>SUBSTRUCTURE
1   LIG    1    
 
########## Name        : 1VRT.lig
########## Description : AM1BCC_CHARGES =  -0.0002 ORIGINAL_CHARGES =  -0.0000

@<TRIPOS>MOLECULE
1VRT.lig
34    37    1     0     0    
SMALL
USER_CHARGES
@<TRIPOS>ATOM
1     N1       4.0540  -36.9310   22.2210 N.ar    1  LIG  -0.6650  -0.6200 
2     C1       4.9660  -36.2380   22.9390 C.ar    1  LIG   0.3947   0.1600 
3     H1       6.0082  -36.2811   22.6707 H       1  LIG   0.0281   0.1500 
4     C2       4.6240  -35.4500   24.0360 C.ar    1  LIG  -0.2334  -0.1500 
5     H2       5.3884  -34.9151   24.5740 H       1  LIG   0.1480   0.1500 
6     C3       3.3050  -35.3690   24.4150 C.ar    1  LIG  -0.0698  -0.1435 
7     C4       2.3460  -36.0770   23.6860 C.ar    1  LIG  -0.0398   0.1170 
8     N2       0.9890  -36.0280   24.1030 N.am    1  LIG  -0.4596  -0.5470 
9     H3       0.7643  -35.9928   25.0860 H       1  LIG   0.3311   0.3700 
10    C5      -0.1450  -36.0180   23.4080 C.2     1  LIG   0.7361   0.5438 
11    C6      -0.1190  -36.0770   21.8860 C.ar    1  LIG  -0.2550   0.0862 
12    C7      -1.1230  -35.3990   21.1890 C.ar    1  LIG  -0.0321  -0.1500 
13    H4      -1.7552  -34.6955   21.7041 H       1  LIG   0.1623   0.1500 
14    C8      -1.2960  -35.6300   19.8690 C.ar    1  LIG  -0.2723  -0.1500 
15    H5      -2.0662  -35.1073   19.3273 H       1  LIG   0.1522   0.1500 
16    C9      -0.4670  -36.5450   19.2400 C.ar    1  LIG   0.4373   0.1600 
17    H6      -0.5947  -36.7554   18.1915 H       1  LIG   0.0280   0.1500 
18    N3       0.5220  -37.2120   19.8740 N.ar    1  LIG  -0.6893  -0.6200 
19    C10      0.7040  -36.9790   21.1800 C.ar    1  LIG   0.6480   0.4100 
20    N4       1.7670  -37.6730   21.8260 N.pl3   1  LIG  -0.6924  -0.3690 
21    C11      2.7540  -36.8570   22.5840 C.ar    1  LIG   0.5805   0.4100 
22    C12      2.9040  -34.5090   25.6010 C.3     1  LIG  -0.0620   0.1435 
23    H7       2.2235  -33.7630   25.2820 H       1  LIG   0.0570   0.0000 
24    H8       2.4436  -35.1154   26.3371 H       1  LIG   0.0495   0.0000 
25    H9       3.7654  -34.0491   26.0108 H       1  LIG   0.0519   0.0000 
26    O1      -1.2400  -35.9060   23.9770 O.2     1  LIG  -0.6361  -0.5700 
27    C13      2.3440  -38.7570   21.0360 C.3     1  LIG   0.1354   0.0690 
28    H10      3.1238  -38.3754   20.4296 H       1  LIG   0.0981   0.1000 
29    C14      2.9380  -39.8900   21.8010 C.3     1  LIG  -0.1181  -0.2000 
30    H11      3.8890  -40.1268   21.3997 H       1  LIG   0.0732   0.1000 
31    H12      3.0430  -39.6129   22.8177 H       1  LIG   0.0789   0.1000 
32    C15      1.6390  -40.0610   21.0880 C.3     1  LIG  -0.1196  -0.2000 
33    H13      0.6832  -39.9283   21.5242 H       1  LIG   0.0807   0.1000 
34    H14      1.5292  -40.4423   20.1061 H       1  LIG   0.0733   0.1000 
@<TRIPOS>BOND
1     2     1     ar
2     3     2     1
3     4     2     ar
4     5     4     1
5     6     4     ar
6     7     6     ar
7     8     7     1
8     9     8     1
9     10    8     1
10    11    10    1
11    12    11    ar
12    13    12    1
13    14    12    ar
14    15    14    1
15    16    14    ar
16    17    16    1
17    18    16    ar
18    19    11    ar
19    19    18    ar
20    20    19    1
21    21    1     ar
22    21    7     ar
23    21    20    1
24    22    6     1
25    23    22    1
26    24    22    1
27    25    22    1
28    26    10    2
29    27    20    1
30    28    27    1
31    29    27    1
32    30    29    1
33    31    29    1
34    32    27    1
35    32    29    1
36    33    32    1
37    34    32    1
@<TRIPOS>SUBSTRUCTURE
1   LIG    1    
 
########## Name        : 1VRT.lig
########## Description : AM1BCC_CHARGES =  -0.0002 ORIGINAL_CHARGES =  -0.0000

@<TRIPOS>MOLECULE
1VRT.lig
34    37    1     0     0    
SMALL
USER_CHARGES
@<TRIPOS>ATOM
1     N1       4.0540  -36.9310   22.2210 N.ar    1  LIG  -0.6650  -0.6200 
2     C1       4.9660  -36.2380   22.9390 C.ar    1  LIG   0.3947   0.1600 
3     H1       6.0082  -36.2811   22.6707 H       1  LIG   0.0281   0.1500 
4     C2       4.6240  -35.4500   24.0360 C.ar    1  LIG  -0.2334  -0.1500 
5     H2       5.3884  -34.9151   24.5740 H       1  LIG   0.1480   0.1500 
6     C3       3.3050  -35.3690   24.4150 C.ar    1  LIG  -0.0698  -0.1435 
7     C4       2.3460  -36.0770   23.6860 C.ar    1  LIG  -0.0398   0.1170 
8     N2       0.9890  -36.0280   24.1030 N.am    1  LIG  -0.4596  -0.5470 
9     H3       0.7643  -35.9928   25.0860 H       1  LIG   0.3311   0.3700 
10    C5      -0.1450  -36.0180   23.4080 C.2     1  LIG   0.7361   0.5438 
11    C6      -0.1190  -36.0770   21.8860 C.ar    1  LIG  -0.2550   0.0862 
12    C7      -1.1230  -35.3990   21.1890 C.ar    1  LIG  -0.0321  -0.1500 
13    H4      -1.7552  -34.6955   21.7041 H       1  LIG   0.1623   0.1500 
14    C8      -1.2960  -35.6300   19.8690 C.ar    1  LIG  -0.2723  -0.1500 
15    H5      -2.0662  -35.1073   19.3273 H       1  LIG   0.1522   0.1500 
16    C9      -0.4670  -36.5450   19.2400 C.ar    1  LIG   0.4373   0.1600 
17    H6      -0.5947  -36.7554   18.1915 H       1  LIG   0.0280   0.1500 
18    N3       0.5220  -37.2120   19.8740 N.ar    1  LIG  -0.6893  -0.6200 
19    C10      0.7040  -36.9790   21.1800 C.ar    1  LIG   0.6480   0.4100 
20    N4       1.7670  -37.6730   21.8260 N.pl3   1  LIG  -0.6924  -0.3690 
21    C11      2.7540  -36.8570   22.5840 C.ar    1  LIG   0.5805   0.4100 
22    C12      2.9040  -34.5090   25.6010 C.3     1  LIG  -0.0620   0.1435 
23    H7       2.2235  -33.7630   25.2820 H       1  LIG   0.0570   0.0000 
24    H8       2.4436  -35.1154   26.3371 H       1  LIG   0.0495   0.0000 
25    H9       3.7654  -34.0491   26.0108 H       1  LIG   0.0519   0.0000 
26    O1      -1.2400  -35.9060   23.9770 O.2     1  LIG  -0.6361  -0.5700 
27    C13      2.3440  -38.7570   21.0360 C.3     1  LIG   0.1354   0.0690 
28    H10      3.1238  -38.3754   20.4296 H       1  LIG   0.0981   0.1000 
29    C14      2.9380  -39.8900   21.8010 C.3     1  LIG  -0.1181  -0.2000 
30    H11      3.8890  -40.1268   21.3997 H       1  LIG   0.0732   0.1000 
31    H12      3.0430  -39.6129   22.8177 H       1  LIG   0.0789   0.1000 
32    C15      1.6390  -40.0610   21.0880 C.3     1  LIG  -0.1196  -0.2000 
33    H13      0.6832  -39.9283   21.5242 H       1  LIG   0.0807   0.1000 
34    H14      1.5292  -40.4423   20.1061 H       1  LIG   0.0733   0.1000 
@<TRIPOS>BOND
1     2     1     ar
2     3     2     1
3     4     2     ar
4     5     4     1
5     6     4     ar
6     7     6     ar
7     8     7     1
8     9     8     1
9     10    8     1
10    11    10    1
11    12    11    ar
12    13    12    1
13    14    12    ar
14    15    14    1
15    16    14    ar
16    17    16    1
17    18    16    ar
18    19    11    ar
19    19    18    ar
20    20    19    1
21    21    1     ar
22    21    7     ar
23    21    20    1
24    22    6     1
25    23    22    1
26    24    22    1
27    25    22    1
28    26    10    2
29    27    20    1
30    28    27    1
31    29    27    1
32    30    29    1
33    31    29    1
34    32    27    1
35    32    29    1
36    33    32    1
37    34    32    1
@<TRIPOS>SUBSTRUCTURE
1   LIG    1    
 
########## Name        : 1VRT.lig
########## Description : AM1BCC_CHARGES =  -0.0002 ORIGINAL_CHARGES =  -0.0000

@<TRIPOS>MOLECULE
1VRT.lig
34    37    1     0     0    
SMALL
USER_CHARGES
@<TRIPOS>ATOM
1     N1       4.0540  -36.9310   22.2210 N.ar    1  LIG  -0.6650  -0.6200 
2     C1       4.9660  -36.2380   22.9390 C.ar    1  LIG   0.3947   0.1600 
3     H1       6.0082  -36.2811   22.6707 H       1  LIG   0.0281   0.1500 
4     C2       4.6240  -35.4500   24.0360 C.ar    1  LIG  -0.2334  -0.1500 
5     H2       5.3884  -34.9151   24.5740 H       1  LIG   0.1480   0.1500 
6     C3       3.3050  -35.3690   24.4150 C.ar    1  LIG  -0.0698  -0.1435 
7     C4       2.3460  -36.0770   23.6860 C.ar    1  LIG  -0.0398   0.1170 
8     N2       0.9890  -36.0280   24.1030 N.am    1  LIG  -0.4596  -0.5470 
9     H3       0.7643  -35.9928   25.0860 H       1  LIG   0.3311   0.3700 
10    C5      -0.1450  -36.0180   23.4080 C.2     1  LIG   0.7361   0.5438 
11    C6      -0.1190  -36.0770   21.8860 C.ar    1  LIG  -0.2550   0.0862 
12    C7      -1.1230  -35.3990   21.1890 C.ar    1  LIG  -0.0321  -0.1500 
13    H4      -1.7552  -34.6955   21.7041 H       1  LIG   0.1623   0.1500 
14    C8      -1.2960  -35.6300   19.8690 C.ar    1  LIG  -0.2723  -0.1500 
15    H5      -2.0662  -35.1073   19.3273 H       1  LIG   0.1522   0.1500 
16    C9      -0.4670  -36.5450   19.2400 C.ar    1  LIG   0.4373   0.1600 
17    H6      -0.5947  -36.7554   18.1915 H       1  LIG   0.0280   0.1500 
18    N3       0.5220  -37.2120   19.8740 N.ar    1  LIG  -0.6893  -0.6200 
19    C10      0.7040  -36.9790   21.1800 C.ar    1  LIG   0.6480   0.4100 
20    N4       1.7670  -37.6730   21.8260 N.pl3   1  LIG  -0.6924  -0.3690 
21    C11      2.7540  -36.8570   22.5840 C.ar    1  LIG   0.5805   0.4100 
22    C12      2.9040  -34.5090   25.6010 C.3     1  LIG  -0.0620   0.1435 
23    H7       2.2235  -33.7630   25.2820 H       1  LIG   0.0570   0.0000 
24    H8       2.4436  -35.1154   26.3371 H       1  LIG   0.0495   0.0000 
25    H9       3.7654  -34.0491   26.0108 H       1  LIG   0.0519   0.0000 
26    O1      -1.2400  -35.9060   23.9770 O.2     1  LIG  -0.6361  -0.5700 
27    C13      2.3440  -38.7570   21.0360 C.3     1  LIG   0.1354   0.0690 
28    H10      3.1238  -38.3754   20.4296 H       1  LIG   0.0981   0.1000 
29    C14      2.9380  -39.8900   21.8010 C.3     1  LIG  -0.1181  -0.2000 
30    H11      3.8890  -40.1268   21.3997 H       1  LIG   0.0732   0.1000 
31    H12      3.0430  -39.6129   22.8177 H       1  LIG   0.0789   0.1000 
32    C15      1.6390  -40.0610   21.0880 C.3     1  LIG  -0.1196  -0.2000 
33    H13      0.6832  -39.9283   21.5242 H       1  LIG   0.0807   0.1000 
34    H14      1.5292  -40.4423   20.1061 H       1  LIG   0.0733   0.1000 
@<TRIPOS>BOND
1     2     1     ar
2     3     2     1
3     4     2     ar
4     5     4     1
5     6     4     ar
6     7     6     ar
7     8     7     1
8     9     8     1
9     10    8     1
10    11    10    1
11    12    11    ar
12    13    12    1
13    14    12    ar
14    15    14    1
15    16    14    ar
16    17    16    1
17    18    16    ar
18    19    11    ar
19    19    18    ar
20    20    19    1
21    21    1     ar
22    21    7     ar
23    21    20    1
24    22    6     1
25    23    22    1
26    24    22    1
27    25    22    1
28    26    10    2
29    27    20    1
30    28    27    1
31    29    27    1
32    30    29    1
33    31    29    1
34    32    27    1
35    32    29    1
36    33    32    1
37    34    32    1
@<TRIPOS>SUBSTRUCTURE
1   LIG    1    
 
########## Name        : 1VRT.lig
########## Description : AM1BCC_CHARGES =  -0.0002 ORIGINAL_CHARGES =  -0.0000

@<TRIPOS>MOLECULE
1VRT.lig
34    37    1     0     0    
SMALL
USER_CHARGES
@<TRIPOS>ATOM
1     N1       4.0540  -36.9310   22.2210 N.ar    1  LIG  -0.6650  -0.6200 
2     C1       4.9660  -36.2380   22.9390 C.ar    1  LIG   0.3947   0.1600 
3     H1       6.0082  -36.2811   22.6707 H       1  LIG   0.0281   0.1500 
4     C2       4.6240  -35.4500   24.0360 C.ar    1  LIG  -0.2334  -0.1500 
5     H2       5.3884  -34.9151   24.5740 H       1  LIG   0.1480   0.1500 
6     C3       3.3050  -35.3690   24.4150 C.ar    1  LIG  -0.0698  -0.1435 
7     C4       2.3460  -36.0770   23.6860 C.ar    1  LIG  -0.0398   0.1170 
8     N2       0.9890  -36.0280   24.1030 N.am    1  LIG  -0.4596  -0.5470 
9     H3       0.7643  -35.9928   25.0860 H       1  LIG   0.3311   0.3700 
10    C5      -0.1450  -36.0180   23.4080 C.2     1  LIG   0.7361   0.5438 
11    C6      -0.1190  -36.0770   21.8860 C.ar    1  LIG  -0.2550   0.0862 
12    C7      -1.1230  -35.3990   21.1890 C.ar    1  LIG  -0.0321  -0.1500 
13    H4      -1.7552  -34.6955   21.7041 H       1  LIG   0.1623   0.1500 
14    C8      -1.2960  -35.6300   19.8690 C.ar    1  LIG  -0.2723  -0.1500 
15    H5      -2.0662  -35.1073   19.3273 H       1  LIG   0.1522   0.1500 
16    C9      -0.4670  -36.5450   19.2400 C.ar    1  LIG   0.4373   0.1600 
17    H6      -0.5947  -36.7554   18.1915 H       1  LIG   0.0280   0.1500 
18    N3       0.5220  -37.2120   19.8740 N.ar    1  LIG  -0.6893  -0.6200 
19    C10      0.7040  -36.9790   21.1800 C.ar    1  LIG   0.6480   0.4100 
20    N4       1.7670  -37.6730   21.8260 N.pl3   1  LIG  -0.6924  -0.3690 
21    C11      2.7540  -36.8570   22.5840 C.ar    1  LIG   0.5805   0.4100 
22    C12      2.9040  -34.5090   25.6010 C.3     1  LIG  -0.0620   0.1435 
23    H7       2.2235  -33.7630   25.2820 H       1  LIG   0.0570   0.0000 
24    H8       2.4436  -35.1154   26.3371 H       1  LIG   0.0495   0.0000 
25    H9       3.7654  -34.0491   26.0108 H       1  LIG   0.0519   0.0000 
26    O1      -1.2400  -35.9060   23.9770 O.2     1  LIG  -0.6361  -0.5700 
27    C13      2.3440  -38.7570   21.0360 C.3     1  LIG   0.1354   0.0690 
28    H10      3.1238  -38.3754   20.4296 H       1  LIG   0.0981   0.1000 
29    C14      2.9380  -39.8900   21.8010 C.3     1  LIG  -0.1181  -0.2000 
30    H11      3.8890  -40.1268   21.3997 H       1  LIG   0.0732   0.1000 
31    H12      3.0430  -39.6129   22.8177 H       1  LIG   0.0789   0.1000 
32    C15      1.6390  -40.0610   21.0880 C.3     1  LIG  -0.1196  -0.2000 
33    H13      0.6832  -39.9283   21.5242 H       1  LIG   0.0807   0.1000 
34    H14      1.5292  -40.4423   20.1061 H       1  LIG   0.0733   0.1000 
@<TRIPOS>BOND
1     2     1     ar
2     3     2     1
3     4     2     ar
4     5     4     1
5     6     4     ar
6     7     6     ar
7     8     7     1
8     9     8     1
9     10    8     1
10    11    10    1
11    12    11    ar
12    13    12    1
13    14    12    ar
14    15    14    1
15    16    14    ar
16    17    16    1
17    18    16    ar
18    19    11    ar
19    19    18    ar
20    20    19    1
21    21    1     ar
22    21    7     ar
23    21    20    1
24    22    6     1
25    23    22    1
26    24    22    1
27    25    22    1
28    26    10    2
29    27    20    1
30    28    27    1
31    29    27    1
32    30    29    1
33    31    29    1
34    32    27    1
35    32    29    1
36    33    32    1
37    34    32    1
@<TRIPOS>SUBSTRUCTURE
1   LIG    1    
 
########## Name        : 1VRT.lig
########## Description : AM1BCC_CHARGES =  -0.0002 ORIGINAL_CHARGES =  -0.0000

@<TRIPOS>MOLECULE
1VRT.lig
34    37    1     0     0    
SMALL
USER_CHARGES
@<TRIPOS>ATOM
1     N1       4.0540  -36.9310   22.2210 N.ar    1  LIG  -0.6650  -0.6200 
2     C1       4.9660  -36.2380   22.9390 C.ar    1  LIG   0.3947   0.1600 
3     H1       6.0082  -36.2811   22.6707 H       1  LIG   0.0281   0.1500 
4     C2       4.6240  -35.4500   24.0360 C.ar    1  LIG  -0.2334  -0.1500 
5     H2       5.3884  -34.9151   24.5740 H       1  LIG   0.1480   0.1500 
6     C3       3.3050  -35.3690   24.4150 C.ar    1  LIG  -0.0698  -0.1435 
7     C4       2.3460  -36.0770   23.6860 C.ar    1  LIG  -0.0398   0.1170 
8     N2       0.9890  -36.0280   24.1030 N.am    1  LIG  -0.4596  -0.5470 
9     H3       0.7643  -35.9928   25.0860 H       1  LIG   0.3311   0.3700 
10    C5      -0.1450  -36.0180   23.4080 C.2     1  LIG   0.7361   0.5438 
11    C6      -0.1190  -36.0770   21.8860 C.ar    1  LIG  -0.2550   0.0862 
12    C7      -1.1230  -35.3990   21.1890 C.ar    1  LIG  -0.0321  -0.1500 
13    H4      -1.7552  -34.6955   21.7041 H       1  LIG   0.1623   0.1500 
14    C8      -1.2960  -35.6300   19.8690 C.ar    1  LIG  -0.2723  -0.1500 
15    H5      -2.0662  -35.1073   19.3273 H       1  LIG   0.1522   0.1500 
16    C9      -0.4670  -36.5450   19.2400 C.ar    1  LIG   0.4373   0.1600 
17    H6      -0.5947  -36.7554   18.1915 H       1  LIG   0.0280   0.1500 
18    N3       0.5220  -37.2120   19.8740 N.ar    1  LIG  -0.6893  -0.6200 
19    C10      0.7040  -36.9790   21.1800 C.ar    1  LIG   0.6480   0.4100 
20    N4       1.7670  -37.6730   21.8260 N.pl3   1  LIG  -0.6924  -0.3690 
21    C11      2.7540  -36.8570   22.5840 C.ar    1  LIG   0.5805   0.4100 
22    C12      2.9040  -34.5090   25.6010 C.3     1  LIG  -0.0620   0.1435 
23    H7       2.2235  -33.7630   25.2820 H       1  LIG   0.0570   0.0000 
24    H8       2.4436  -35.1154   26.3371 H       1  LIG   0.0495   0.0000 
25    H9       3.7654  -34.0491   26.0108 H       1  LIG   0.0519   0.0000 
26    O1      -1.2400  -35.9060   23.9770 O.2     1  LIG  -0.6361  -0.5700 
27    C13      2.3440  -38.7570   21.0360 C.3     1  LIG   0.1354   0.0690 
28    H10      3.1238  -38.3754   20.4296 H       1  LIG   0.0981   0.1000 
29    C14      2.9380  -39.8900   21.8010 C.3     1  LIG  -0.1181  -0.2000 
30    H11      3.8890  -40.1268   21.3997 H       1  LIG   0.0732   0.1000 
31    H12      3.0430  -39.6129   22.8177 H       1  LIG   0.0789   0.1000 
32    C15      1.6390  -40.0610   21.0880 C.3     1  LIG  -0.1196  -0.2000 
33    H13      0.6832  -39.9283   21.5242 H       1  LIG   0.0807   0.1000 
34    H14      1.5292  -40.4423   20.1061 H       1  LIG   0.0733   0.1000 
@<TRIPOS>BOND
1     2     1     ar
2     3     2     1
3     4     2     ar
4     5     4     1
5     6     4     ar
6     7     6     ar
7     8     7     1
8     9     8     1
9     10    8     1
10    11    10    1
11    12    11    ar
12    13    12    1
13    14    12    ar
14    15    14    1
15    16    14    ar
16    17    16    1
17    18    16    ar
18    19    11    ar
19    19    18    ar
20    20    19    1
21    21    1     ar
22    21    7     ar
23    21    20    1
24    22    6     1
25    23    22    1
26    24    22    1
27    25    22    1
28    26    10    2
29    27    20    1
30    28    27    1
31    29    27    1
32    30    29    1
33    31    29    1
34    32    27    1
35    32    29    1
36    33    32    1
37    34    32    1
@<TRIPOS>SUBSTRUCTURE
1   LIG    1    
 
########## Name        : 1VRT.lig
########## Description : AM1BCC_CHARGES =  -0.0002 ORIGINAL_CHARGES =  -0.0000

@<TRIPOS>MOLECULE
1VRT.lig
34    37    1     0     0    
SMALL
USER_CHARGES
@<TRIPOS>ATOM
1     N1       4.0540  -36.9310   22.2210 N.ar    1  LIG  -0.6650  -0.6200 
2     C1       4.9660  -36.2380   22.9390 C.ar    1  LIG   0.3947   0.1600 
3     H1       6.0082  -36.2811   22.6707 H       1  LIG   0.0281   0.1500 
4     C2       4.6240  -35.4500   24.0360 C.ar    1  LIG  -0.2334  -0.1500 
5     H2       5.3884  -34.9151   24.5740 H       1  LIG   0.1480   0.1500 
6     C3       3.3050  -35.3690   24.4150 C.ar    1  LIG  -0.0698  -0.1435 
7     C4       2.3460  -36.0770   23.6860 C.ar    1  LIG  -0.0398   0.1170 
8     N2       0.9890  -36.0280   24.1030 N.am    1  LIG  -0.4596  -0.5470 
9     H3       0.7643  -35.9928   25.0860 H       1  LIG   0.3311   0.3700 
10    C5      -0.1450  -36.0180   23.4080 C.2     1  LIG   0.7361   0.5438 
11    C6      -0.1190  -36.0770   21.8860 C.ar    1  LIG  -0.2550   0.0862 
12    C7      -1.1230  -35.3990   21.1890 C.ar    1  LIG  -0.0321  -0.1500 
13    H4      -1.7552  -34.6955   21.7041 H       1  LIG   0.1623   0.1500 
14    C8      -1.2960  -35.6300   19.8690 C.ar    1  LIG  -0.2723  -0.1500 
15    H5      -2.0662  -35.1073   19.3273 H       1  LIG   0.1522   0.1500 
16    C9      -0.4670  -36.5450   19.2400 C.ar    1  LIG   0.4373   0.1600 
17    H6      -0.5947  -36.7554   18.1915 H       1  LIG   0.0280   0.1500 
18    N3       0.5220  -37.2120   19.8740 N.ar    1  LIG  -0.6893  -0.6200 
19    C10      0.7040  -36.9790   21.1800 C.ar    1  LIG   0.6480   0.4100 
20    N4       1.7670  -37.6730   21.8260 N.pl3   1  LIG  -0.6924  -0.3690 
21    C11      2.7540  -36.8570   22.5840 C.ar    1  LIG   0.5805   0.4100 
22    C12      2.9040  -34.5090   25.6010 C.3     1  LIG  -0.0620   0.1435 
23    H7       2.2235  -33.7630   25.2820 H       1  LIG   0.0570   0.0000 
24    H8       2.4436  -35.1154   26.3371 H       1  LIG   0.0495   0.0000 
25    H9       3.7654  -34.0491   26.0108 H       1  LIG   0.0519   0.0000 
26    O1      -1.2400  -35.9060   23.9770 O.2     1  LIG  -0.6361  -0.5700 
27    C13      2.3440  -38.7570   21.0360 C.3     1  LIG   0.1354   0.0690 
28    H10      3.1238  -38.3754   20.4296 H       1  LIG   0.0981   0.1000 
29    C14      2.9380  -39.8900   21.8010 C.3     1  LIG  -0.1181  -0.2000 
30    H11      3.8890  -40.1268   21.3997 H       1  LIG   0.0732   0.1000 
31    H12      3.0430  -39.6129   22.8177 H       1  LIG   0.0789   0.1000 
32    C15      1.6390  -40.0610   21.0880 C.3     1  LIG  -0.1196  -0.2000 
33    H13      0.6832  -39.9283   21.5242 H       1  LIG   0.0807   0.1000 
34    H14      1.5292  -40.4423   20.1061 H       1  LIG   0.0733   0.1000 
@<TRIPOS>BOND
1     2     1     ar
2     3     2     1
3     4     2     ar
4     5     4     1
5     6     4     ar
6     7     6     ar
7     8     7     1
8     9     8     1
9     10    8     1
10    11    10    1
11    12    11    ar
12    13    12    1
13    14    12    ar
14    15    14    1
15    16    14    ar
16    17    16    1
17    18    16    ar
18    19    11    ar
19    19    18    ar
20    20    19    1
21    21    1     ar
22    21    7     ar
23    21    20    1
24    22    6     1
25    23    22    1
26    24    22    1
27    25    22    1
28    26    10    2
29    27    20    1
30    28    27    1
31    29    27    1
32    30    29    1
33    31    29    1
34    32    27    1
35    32    29    1
36    33    32    1
37    34    32    1
@<TRIPOS>SUBSTRUCTURE
1   LIG    1    
 
########## Name        : 1VRT.lig
########## Description : AM1BCC_CHARGES =  -0.0002 ORIGINAL_CHARGES =  -0.0000

@<TRIPOS>MOLECULE
1VRT.lig
34    37    1     0     0    
SMALL
USER_CHARGES
@<TRIPOS>ATOM
1     N1       4.0540  -36.9310   22.2210 N.ar    1  LIG  -0.6650  -0.6200 
2     C1       4.9660  -36.2380   22.9390 C.ar    1  LIG   0.3947   0.1600 
3     H1       6.0082  -36.2811   22.6707 H       1  LIG   0.0281   0.1500 
4     C2       4.6240  -35.4500   24.0360 C.ar    1  LIG  -0.2334  -0.1500 
5     H2       5.3884  -34.9151   24.5740 H       1  LIG   0.1480   0.1500 
6     C3       3.3050  -35.3690   24.4150 C.ar    1  LIG  -0.0698  -0.1435 
7     C4       2.3460  -36.0770   23.6860 C.ar    1  LIG  -0.0398   0.1170 
8     N2       0.9890  -36.0280   24.1030 N.am    1  LIG  -0.4596  -0.5470 
9     H3       0.7643  -35.9928   25.0860 H       1  LIG   0.3311   0.3700 
10    C5      -0.1450  -36.0180   23.4080 C.2     1  LIG   0.7361   0.5438 
11    C6      -0.1190  -36.0770   21.8860 C.ar    1  LIG  -0.2550   0.0862 
12    C7      -1.1230  -35.3990   21.1890 C.ar    1  LIG  -0.0321  -0.1500 
13    H4      -1.7552  -34.6955   21.7041 H       1  LIG   0.1623   0.1500 
14    C8      -1.2960  -35.6300   19.8690 C.ar    1  LIG  -0.2723  -0.1500 
15    H5      -2.0662  -35.1073   19.3273 H       1  LIG   0.1522   0.1500 
16    C9      -0.4670  -36.5450   19.2400 C.ar    1  LIG   0.4373   0.1600 
17    H6      -0.5947  -36.7554   18.1915 H       1  LIG   0.0280   0.1500 
18    N3       0.5220  -37.2120   19.8740 N.ar    1  LIG  -0.6893  -0.6200 
19    C10      0.7040  -36.9790   21.1800 C.ar    1  LIG   0.6480   0.4100 
20    N4       1.7670  -37.6730   21.8260 N.pl3   1  LIG  -0.6924  -0.3690 
21    C11      2.7540  -36.8570   22.5840 C.ar    1  LIG   0.5805   0.4100 
22    C12      2.9040  -34.5090   25.6010 C.3     1  LIG  -0.0620   0.1435 
23    H7       2.2235  -33.7630   25.2820 H       1  LIG   0.0570   0.0000 
24    H8       2.4436  -35.1154   26.3371 H       1  LIG   0.0495   0.0000 
25    H9       3.7654  -34.0491   26.0108 H       1  LIG   0.0519   0.0000 
26    O1      -1.2400  -35.9060   23.9770 O.2     1  LIG  -0.6361  -0.5700 
27    C13      2.3440  -38.7570   21.0360 C.3     1  LIG   0.1354   0.0690 
28    H10      3.1238  -38.3754   20.4296 H       1  LIG   0.0981   0.1000 
29    C14      2.9380  -39.8900   21.8010 C.3     1  LIG  -0.1181  -0.2000 
30    H11      3.8890  -40.1268   21.3997 H       1  LIG   0.0732   0.1000 
31    H12      3.0430  -39.6129   22.8177 H       1  LIG   0.0789   0.1000 
32    C15      1.6390  -40.0610   21.0880 C.3     1  LIG  -0.1196  -0.2000 
33    H13      0.6832  -39.9283   21.5242 H       1  LIG   0.0807   0.1000 
34    H14      1.5292  -40.4423   20.1061 H       1  LIG   0.0733   0.1000 
@<TRIPOS>BOND
1     2     1     ar
2     3     2     1
3     4     2     ar
4     5     4     1
5     6     4     ar
6     7     6     ar
7     8     7     1
8     9     8     1
9     10    8     1
10    11    10    1
11    12    11    ar
12    13    12    1
13    14    12    ar
14    15    14    1
15    16    14    ar
16    17    16    1
17    18    16    ar
18    19    11    ar
19    19    18    ar
20    20    19    1
21    21    1     ar
22    21    7     ar
23    21    20    1
24    22    6     1
25    23    22    1
26    24    22    1
27    25    22    1
28    26    10    2
29    27    20    1
30    28    27    1
31    29    27    1
32    30    29    1
33    31    29    1
34    32    27    1
35    32    29    1
36    33    32    1
37    34    32    1
@<TRIPOS>SUBSTRUCTURE
1   LIG    1    
 
########## Name        : 1VRT.lig
########## Description : AM1BCC_CHARGES =  -0.0002 ORIGINAL_CHARGES =  -0.0000

@<TRIPOS>MOLECULE
1VRT.lig
34    37    1     0     0    
SMALL
USER_CHARGES
@<TRIPOS>ATOM
1     N1       4.0540  -36.9310   22.2210 N.ar    1  LIG  -0.6650  -0.6200 
2     C1       4.9660  -36.2380   22.9390 C.ar    1  LIG   0.3947   0.1600 
3     H1       6.0082  -36.2811   22.6707 H       1  LIG   0.0281   0.1500 
4     C2       4.6240  -35.4500   24.0360 C.ar    1  LIG  -0.2334  -0.1500 
5     H2       5.3884  -34.9151   24.5740 H       1  LIG   0.1480   0.1500 
6     C3       3.3050  -35.3690   24.4150 C.ar    1  LIG  -0.0698  -0.1435 
7     C4       2.3460  -36.0770   23.6860 C.ar    1  LIG  -0.0398   0.1170 
8     N2       0.9890  -36.0280   24.1030 N.am    1  LIG  -0.4596  -0.5470 
9     H3       0.7643  -35.9928   25.0860 H       1  LIG   0.3311   0.3700 
10    C5      -0.1450  -36.0180   23.4080 C.2     1  LIG   0.7361   0.5438 
11    C6      -0.1190  -36.0770   21.8860 C.ar    1  LIG  -0.2550   0.0862 
12    C7      -1.1230  -35.3990   21.1890 C.ar    1  LIG  -0.0321  -0.1500 
13    H4      -1.7552  -34.6955   21.7041 H       1  LIG   0.1623   0.1500 
14    C8      -1.2960  -35.6300   19.8690 C.ar    1  LIG  -0.2723  -0.1500 
15    H5      -2.0662  -35.1073   19.3273 H       1  LIG   0.1522   0.1500 
16    C9      -0.4670  -36.5450   19.2400 C.ar    1  LIG   0.4373   0.1600 
17    H6      -0.5947  -36.7554   18.1915 H       1  LIG   0.0280   0.1500 
18    N3       0.5220  -37.2120   19.8740 N.ar    1  LIG  -0.6893  -0.6200 
19    C10      0.7040  -36.9790   21.1800 C.ar    1  LIG   0.6480   0.4100 
20    N4       1.7670  -37.6730   21.8260 N.pl3   1  LIG  -0.6924  -0.3690 
21    C11      2.7540  -36.8570   22.5840 C.ar    1  LIG   0.5805   0.4100 
22    C12      2.9040  -34.5090   25.6010 C.3     1  LIG  -0.0620   0.1435 
23    H7       2.2235  -33.7630   25.2820 H       1  LIG   0.0570   0.0000 
24    H8       2.4436  -35.1154   26.3371 H       1  LIG   0.0495   0.0000 
25    H9       3.7654  -34.0491   26.0108 H       1  LIG   0.0519   0.0000 
26    O1      -1.2400  -35.9060   23.9770 O.2     1  LIG  -0.6361  -0.5700 
27    C13      2.3440  -38.7570   21.0360 C.3     1  LIG   0.1354   0.0690 
28    H10      3.1238  -38.3754   20.4296 H       1  LIG   0.0981   0.1000 
29    C14      2.9380  -39.8900   21.8010 C.3     1  LIG  -0.1181  -0.2000 
30    H11      3.8890  -40.1268   21.3997 H       1  LIG   0.0732   0.1000 
31    H12      3.0430  -39.6129   22.8177 H       1  LIG   0.0789   0.1000 
32    C15      1.6390  -40.0610   21.0880 C.3     1  LIG  -0.1196  -0.2000 
33    H13      0.6832  -39.9283   21.5242 H       1  LIG   0.0807   0.1000 
34    H14      1.5292  -40.4423   20.1061 H       1  LIG   0.0733   0.1000 
@<TRIPOS>BOND
1     2     1     ar
2     3     2     1
3     4     2     ar
4     5     4     1
5     6     4     ar
6     7     6     ar
7     8     7     1
8     9     8     1
9     10    8     1
10    11    10    1
11    12    11    ar
12    13    12    1
13    14    12    ar
14    15    14    1
15    16    14    ar
16    17    16    1
17    18    16    ar
18    19    11    ar
19    19    18    ar
20    20    19    1
21    21    1     ar
22    21    7     ar
23    21    20    1
24    22    6     1
25    23    22    1
26    24    22    1
27    25    22    1
28    26    10    2
29    27    20    1
30    28    27    1
31    29    27    1
32    30    29    1
33    31    29    1
34    32    27    1
35    32    29    1
36    33    32    1
37    34    32    1
@<TRIPOS>SUBSTRUCTURE
1   LIG    1    
 
########## Name        : 1VRT.lig
########## Description : AM1BCC_CHARGES =  -0.0002 ORIGINAL_CHARGES =  -0.0000

@<TRIPOS>MOLECULE
1VRT.lig
34    37    1     0     0    
SMALL
USER_CHARGES
@<TRIPOS>ATOM
1     N1       4.0540  -36.9310   22.2210 N.ar    1  LIG  -0.6650  -0.6200 
2     C1       4.9660  -36.2380   22.9390 C.ar    1  LIG   0.3947   0.1600 
3     H1       6.0082  -36.2811   22.6707 H       1  LIG   0.0281   0.1500 
4     C2       4.6240  -35.4500   24.0360 C.ar    1  LIG  -0.2334  -0.1500 
5     H2       5.3884  -34.9151   24.5740 H       1  LIG   0.1480   0.1500 
6     C3       3.3050  -35.3690   24.4150 C.ar    1  LIG  -0.0698  -0.1435 
7     C4       2.3460  -36.0770   23.6860 C.ar    1  LIG  -0.0398   0.1170 
8     N2       0.9890  -36.0280   24.1030 N.am    1  LIG  -0.4596  -0.5470 
9     H3       0.7643  -35.9928   25.0860 H       1  LIG   0.3311   0.3700 
10    C5      -0.1450  -36.0180   23.4080 C.2     1  LIG   0.7361   0.5438 
11    C6      -0.1190  -36.0770   21.8860 C.ar    1  LIG  -0.2550   0.0862 
12    C7      -1.1230  -35.3990   21.1890 C.ar    1  LIG  -0.0321  -0.1500 
13    H4      -1.7552  -34.6955   21.7041 H       1  LIG   0.1623   0.1500 
14    C8      -1.2960  -35.6300   19.8690 C.ar    1  LIG  -0.2723  -0.1500 
15    H5      -2.0662  -35.1073   19.3273 H       1  LIG   0.1522   0.1500 
16    C9      -0.4670  -36.5450   19.2400 C.ar    1  LIG   0.4373   0.1600 
17    H6      -0.5947  -36.7554   18.1915 H       1  LIG   0.0280   0.1500 
18    N3       0.5220  -37.2120   19.8740 N.ar    1  LIG  -0.6893  -0.6200 
19    C10      0.7040  -36.9790   21.1800 C.ar    1  LIG   0.6480   0.4100 
20    N4       1.7670  -37.6730   21.8260 N.pl3   1  LIG  -0.6924  -0.3690 
21    C11      2.7540  -36.8570   22.5840 C.ar    1  LIG   0.5805   0.4100 
22    C12      2.9040  -34.5090   25.6010 C.3     1  LIG  -0.0620   0.1435 
23    H7       2.2235  -33.7630   25.2820 H       1  LIG   0.0570   0.0000 
24    H8       2.4436  -35.1154   26.3371 H       1  LIG   0.0495   0.0000 
25    H9       3.7654  -34.0491   26.0108 H       1  LIG   0.0519   0.0000 
26    O1      -1.2400  -35.9060   23.9770 O.2     1  LIG  -0.6361  -0.5700 
27    C13      2.3440  -38.7570   21.0360 C.3     1  LIG   0.1354   0.0690 
28    H10      3.1238  -38.3754   20.4296 H       1  LIG   0.0981   0.1000 
29    C14      2.9380  -39.8900   21.8010 C.3     1  LIG  -0.1181  -0.2000 
30    H11      3.8890  -40.1268   21.3997 H       1  LIG   0.0732   0.1000 
31    H12      3.0430  -39.6129   22.8177 H       1  LIG   0.0789   0.1000 
32    C15      1.6390  -40.0610   21.0880 C.3     1  LIG  -0.1196  -0.2000 
33    H13      0.6832  -39.9283   21.5242 H       1  LIG   0.0807   0.1000 
34    H14      1.5292  -40.4423   20.1061 H       1  LIG   0.0733   0.1000 
@<TRIPOS>BOND
1     2     1     ar
2     3     2     1
3     4     2     ar
4     5     4     1
5     6     4     ar
6     7     6     ar
7     8     7     1
8     9     8     1
9     10    8     1
10    11    10    1
11    12    11    ar
12    13    12    1
13    14    12    ar
14    15    14    1
15    16    14    ar
16    17    16    1
17    18    16    ar
18    19    11    ar
19    19    18    ar
20    20    19    1
21    21    1     ar
22    21    7     ar
23    21    20    1
24    22    6     1
25    23    22    1
26    24    22    1
27    25    22    1
28    26    10    2
29    27    20    1
30    28    27    1
31    29    27    1
32    30    29    1
33    31    29    1
34    32    27    1
35    32    29    1
36    33    32    1
37    34    32    1
@<TRIPOS>SUBSTRUCTURE
1   LIG    1    
 
########## Name        : 1VRT.lig
########## Description : AM1BCC_CHARGES =  -0.0002 ORIGINAL_CHARGES =  -0.0000

@<TRIPOS>MOLECULE
1VRT.lig
34    37    1     0     0    
SMALL
USER_CHARGES
@<TRIPOS>ATOM
1     N1       4.0540  -36.9310   22.2210 N.ar    1  LIG  -0.6650  -0.6200 
2     C1       4.9660  -36.2380   22.9390 C.ar    1  LIG   0.3947   0.1600 
3     H1       6.0082  -36.2811   22.6707 H       1  LIG   0.0281   0.1500 
4     C2       4.6240  -35.4500   24.0360 C.ar    1  LIG  -0.2334  -0.1500 
5     H2       5.3884  -34.9151   24.5740 H       1  LIG   0.1480   0.1500 
6     C3       3.3050  -35.3690   24.4150 C.ar    1  LIG  -0.0698  -0.1435 
7     C4       2.3460  -36.0770   23.6860 C.ar    1  LIG  -0.0398   0.1170 
8     N2       0.9890  -36.0280   24.1030 N.am    1  LIG  -0.4596  -0.5470 
9     H3       0.7643  -35.9928   25.0860 H       1  LIG   0.3311   0.3700 
10    C5      -0.1450  -36.0180   23.4080 C.2     1  LIG   0.7361   0.5438 
11    C6      -0.1190  -36.0770   21.8860 C.ar    1  LIG  -0.2550   0.0862 
12    C7      -1.1230  -35.3990   21.1890 C.ar    1  LIG  -0.0321  -0.1500 
13    H4      -1.7552  -34.6955   21.7041 H       1  LIG   0.1623   0.1500 
14    C8      -1.2960  -35.6300   19.8690 C.ar    1  LIG  -0.2723  -0.1500 
15    H5      -2.0662  -35.1073   19.3273 H       1  LIG   0.1522   0.1500 
16    C9      -0.4670  -36.5450   19.2400 C.ar    1  LIG   0.4373   0.1600 
17    H6      -0.5947  -36.7554   18.1915 H       1  LIG   0.0280   0.1500 
18    N3       0.5220  -37.2120   19.8740 N.ar    1  LIG  -0.6893  -0.6200 
19    C10      0.7040  -36.9790   21.1800 C.ar    1  LIG   0.6480   0.4100 
20    N4       1.7670  -37.6730   21.8260 N.pl3   1  LIG  -0.6924  -0.3690 
21    C11      2.7540  -36.8570   22.5840 C.ar    1  LIG   0.5805   0.4100 
22    C12      2.9040  -34.5090   25.6010 C.3     1  LIG  -0.0620   0.1435 
23    H7       2.2235  -33.7630   25.2820 H       1  LIG   0.0570   0.0000 
24    H8       2.4436  -35.1154   26.3371 H       1  LIG   0.0495   0.0000 
25    H9       3.7654  -34.0491   26.0108 H       1  LIG   0.0519   0.0000 
26    O1      -1.2400  -35.9060   23.9770 O.2     1  LIG  -0.6361  -0.5700 
27    C13      2.3440  -38.7570   21.0360 C.3     1  LIG   0.1354   0.0690 
28    H10      3.1238  -38.3754   20.4296 H       1  LIG   0.0981   0.1000 
29    C14      2.9380  -39.8900   21.8010 C.3     1  LIG  -0.1181  -0.2000 
30    H11      3.8890  -40.1268   21.3997 H       1  LIG   0.0732   0.1000 
31    H12      3.0430  -39.6129   22.8177 H       1  LIG   0.0789   0.1000 
32    C15      1.6390  -40.0610   21.0880 C.3     1  LIG  -0.1196  -0.2000 
33    H13      0.6832  -39.9283   21.5242 H       1  LIG   0.0807   0.1000 
34    H14      1.5292  -40.4423   20.1061 H       1  LIG   0.0733   0.1000 
@<TRIPOS>BOND
1     2     1     ar
2     3     2     1
3     4     2     ar
4     5     4     1
5     6     4     ar
6     7     6     ar
7     8     7     1
8     9     8     1
9     10    8     1
10    11    10    1
11    12    11    ar
12    13    12    1
13    14    12    ar
14    15    14    1
15    16    14    ar
16    17    16    1
17    18    16    ar
18    19    11    ar
19    19    18    ar
20    20    19    1
21    21    1     ar
22    21    7     ar
23    21    20    1
24    22    6     1
25    23    22    1
26    24    22    1
27    25    22    1
28    26    10    2
29    27    20    1
30    28    27    1
31    29    27    1
32    30    29    1
33    31    29    1
34    32    27    1
35    32    29    1
36    33    32    1
37    34    32    1
@<TRIPOS>SUBSTRUCTURE
1   LIG    1    
 
########## Name        : 1VRT.lig
########## Description : AM1BCC_CHARGES =  -0.0002 ORIGINAL_CHARGES =  -0.0000

@<TRIPOS>MOLECULE
1VRT.lig
34    37    1     0     0    
SMALL
USER_CHARGES
@<TRIPOS>ATOM
1     N1       4.0540  -36.9310   22.2210 N.ar    1  LIG  -0.6650  -0.6200 
2     C1       4.9660  -36.2380   22.9390 C.ar    1  LIG   0.3947   0.1600 
3     H1       6.0082  -36.2811   22.6707 H       1  LIG   0.0281   0.1500 
4     C2       4.6240  -35.4500   24.0360 C.ar    1  LIG  -0.2334  -0.1500 
5     H2       5.3884  -34.9151   24.5740 H       1  LIG   0.1480   0.1500 
6     C3       3.3050  -35.3690   24.4150 C.ar    1  LIG  -0.0698  -0.1435 
7     C4       2.3460  -36.0770   23.6860 C.ar    1  LIG  -0.0398   0.1170 
8     N2       0.9890  -36.0280   24.1030 N.am    1  LIG  -0.4596  -0.5470 
9     H3       0.7643  -35.9928   25.0860 H       1  LIG   0.3311   0.3700 
10    C5      -0.1450  -36.0180   23.4080 C.2     1  LIG   0.7361   0.5438 
11    C6      -0.1190  -36.0770   21.8860 C.ar    1  LIG  -0.2550   0.0862 
12    C7      -1.1230  -35.3990   21.1890 C.ar    1  LIG  -0.0321  -0.1500 
13    H4      -1.7552  -34.6955   21.7041 H       1  LIG   0.1623   0.1500 
14    C8      -1.2960  -35.6300   19.8690 C.ar    1  LIG  -0.2723  -0.1500 
15    H5      -2.0662  -35.1073   19.3273 H       1  LIG   0.1522   0.1500 
16    C9      -0.4670  -36.5450   19.2400 C.ar    1  LIG   0.4373   0.1600 
17    H6      -0.5947  -36.7554   18.1915 H       1  LIG   0.0280   0.1500 
18    N3       0.5220  -37.2120   19.8740 N.ar    1  LIG  -0.6893  -0.6200 
19    C10      0.7040  -36.9790   21.1800 C.ar    1  LIG   0.6480   0.4100 
20    N4       1.7670  -37.6730   21.8260 N.pl3   1  LIG  -0.6924  -0.3690 
21    C11      2.7540  -36.8570   22.5840 C.ar    1  LIG   0.5805   0.4100 
22    C12      2.9040  -34.5090   25.6010 C.3     1  LIG  -0.0620   0.1435 
23    H7       2.2235  -33.7630   25.2820 H       1  LIG   0.0570   0.0000 
24    H8       2.4436  -35.1154   26.3371 H       1  LIG   0.0495   0.0000 
25    H9       3.7654  -34.0491   26.0108 H       1  LIG   0.0519   0.0000 
26    O1      -1.2400  -35.9060   23.9770 O.2     1  LIG  -0.6361  -0.5700 
27    C13      2.3440  -38.7570   21.0360 C.3     1  LIG   0.1354   0.0690 
28    H10      3.1238  -38.3754   20.4296 H       1  LIG   0.0981   0.1000 
29    C14      2.9380  -39.8900   21.8010 C.3     1  LIG  -0.1181  -0.2000 
30    H11      3.8890  -40.1268   21.3997 H       1  LIG   0.0732   0.1000 
31    H12      3.0430  -39.6129   22.8177 H       1  LIG   0.0789   0.1000 
32    C15      1.6390  -40.0610   21.0880 C.3     1  LIG  -0.1196  -0.2000 
33    H13      0.6832  -39.9283   21.5242 H       1  LIG   0.0807   0.1000 
34    H14      1.5292  -40.4423   20.1061 H       1  LIG   0.0733   0.1000 
@<TRIPOS>BOND
1     2     1     ar
2     3     2     1
3     4     2     ar
4     5     4     1
5     6     4     ar
6     7     6     ar
7     8     7     1
8     9     8     1
9     10    8     1
10    11    10    1
11    12    11    ar
12    13    12    1
13    14    12    ar
14    15    14    1
15    16    14    ar
16    17    16    1
17    18    16    ar
18    19    11    ar
19    19    18    ar
20    20    19    1
21    21    1     ar
22    21    7     ar
23    21    20    1
24    22    6     1
25    23    22    1
26    24    22    1
27    25    22    1
28    26    10    2
29    27    20    1
30    28    27    1
31    29    27    1
32    30    29    1
33    31    29    1
34    32    27    1
35    32    29    1
36    33    32    1
37    34    32    1
@<TRIPOS>SUBSTRUCTURE
1   LIG    1    
 
########## Name        : 1VRT.lig
########## Description : AM1BCC_CHARGES =  -0.0002 ORIGINAL_CHARGES =  -0.0000

@<TRIPOS>MOLECULE
1VRT.lig
34    37    1     0     0    
SMALL
USER_CHARGES
@<TRIPOS>ATOM
1     N1       4.0540  -36.9310   22.2210 N.ar    1  LIG  -0.6650  -0.6200 
2     C1       4.9660  -36.2380   22.9390 C.ar    1  LIG   0.3947   0.1600 
3     H1       6.0082  -36.2811   22.6707 H       1  LIG   0.0281   0.1500 
4     C2       4.6240  -35.4500   24.0360 C.ar    1  LIG  -0.2334  -0.1500 
5     H2       5.3884  -34.9151   24.5740 H       1  LIG   0.1480   0.1500 
6     C3       3.3050  -35.3690   24.4150 C.ar    1  LIG  -0.0698  -0.1435 
7     C4       2.3460  -36.0770   23.6860 C.ar    1  LIG  -0.0398   0.1170 
8     N2       0.9890  -36.0280   24.1030 N.am    1  LIG  -0.4596  -0.5470 
9     H3       0.7643  -35.9928   25.0860 H       1  LIG   0.3311   0.3700 
10    C5      -0.1450  -36.0180   23.4080 C.2     1  LIG   0.7361   0.5438 
11    C6      -0.1190  -36.0770   21.8860 C.ar    1  LIG  -0.2550   0.0862 
12    C7      -1.1230  -35.3990   21.1890 C.ar    1  LIG  -0.0321  -0.1500 
13    H4      -1.7552  -34.6955   21.7041 H       1  LIG   0.1623   0.1500 
14    C8      -1.2960  -35.6300   19.8690 C.ar    1  LIG  -0.2723  -0.1500 
15    H5      -2.0662  -35.1073   19.3273 H       1  LIG   0.1522   0.1500 
16    C9      -0.4670  -36.5450   19.2400 C.ar    1  LIG   0.4373   0.1600 
17    H6      -0.5947  -36.7554   18.1915 H       1  LIG   0.0280   0.1500 
18    N3       0.5220  -37.2120   19.8740 N.ar    1  LIG  -0.6893  -0.6200 
19    C10      0.7040  -36.9790   21.1800 C.ar    1  LIG   0.6480   0.4100 
20    N4       1.7670  -37.6730   21.8260 N.pl3   1  LIG  -0.6924  -0.3690 
21    C11      2.7540  -36.8570   22.5840 C.ar    1  LIG   0.5805   0.4100 
22    C12      2.9040  -34.5090   25.6010 C.3     1  LIG  -0.0620   0.1435 
23    H7       2.2235  -33.7630   25.2820 H       1  LIG   0.0570   0.0000 
24    H8       2.4436  -35.1154   26.3371 H       1  LIG   0.0495   0.0000 
25    H9       3.7654  -34.0491   26.0108 H       1  LIG   0.0519   0.0000 
26    O1      -1.2400  -35.9060   23.9770 O.2     1  LIG  -0.6361  -0.5700 
27    C13      2.3440  -38.7570   21.0360 C.3     1  LIG   0.1354   0.0690 
28    H10      3.1238  -38.3754   20.4296 H       1  LIG   0.0981   0.1000 
29    C14      2.9380  -39.8900   21.8010 C.3     1  LIG  -0.1181  -0.2000 
30    H11      3.8890  -40.1268   21.3997 H       1  LIG   0.0732   0.1000 
31    H12      3.0430  -39.6129   22.8177 H       1  LIG   0.0789   0.1000 
32    C15      1.6390  -40.0610   21.0880 C.3     1  LIG  -0.1196  -0.2000 
33    H13      0.6832  -39.9283   21.5242 H       1  LIG   0.0807   0.1000 
34    H14      1.5292  -40.4423   20.1061 H       1  LIG   0.0733   0.1000 
@<TRIPOS>BOND
1     2     1     ar
2     3     2     1
3     4     2     ar
4     5     4     1
5     6     4     ar
6     7     6     ar
7     8     7     1
8     9     8     1
9     10    8     1
10    11    10    1
11    12    11    ar
12    13    12    1
13    14    12    ar
14    15    14    1
15    16    14    ar
16    17    16    1
17    18    16    ar
18    19    11    ar
19    19    18    ar
20    20    19    1
21    21    1     ar
22    21    7     ar
23    21    20    1
24    22    6     1
25    23    22    1
26    24    22    1
27    25    22    1
28    26    10    2
29    27    20    1
30    28    27    1
31    29    27    1
32    30    29    1
33    31    29    1
34    32    27    1
35    32    29    1
36    33    32    1
37    34    32    1
@<TRIPOS>SUBSTRUCTURE
1   LIG    1    
 
########## Name        : 1VRT.lig
########## Description : AM1BCC_CHARGES =  -0.0002 ORIGINAL_CHARGES =  -0.0000

@<TRIPOS>MOLECULE
1VRT.lig
34    37    1     0     0    
SMALL
USER_CHARGES
@<TRIPOS>ATOM
1     N1       4.0540  -36.9310   22.2210 N.ar    1  LIG  -0.6650  -0.6200 
2     C1       4.9660  -36.2380   22.9390 C.ar    1  LIG   0.3947   0.1600 
3     H1       6.0082  -36.2811   22.6707 H       1  LIG   0.0281   0.1500 
4     C2       4.6240  -35.4500   24.0360 C.ar    1  LIG  -0.2334  -0.1500 
5     H2       5.3884  -34.9151   24.5740 H       1  LIG   0.1480   0.1500 
6     C3       3.3050  -35.3690   24.4150 C.ar    1  LIG  -0.0698  -0.1435 
7     C4       2.3460  -36.0770   23.6860 C.ar    1  LIG  -0.0398   0.1170 
8     N2       0.9890  -36.0280   24.1030 N.am    1  LIG  -0.4596  -0.5470 
9     H3       0.7643  -35.9928   25.0860 H       1  LIG   0.3311   0.3700 
10    C5      -0.1450  -36.0180   23.4080 C.2     1  LIG   0.7361   0.5438 
11    C6      -0.1190  -36.0770   21.8860 C.ar    1  LIG  -0.2550   0.0862 
12    C7      -1.1230  -35.3990   21.1890 C.ar    1  LIG  -0.0321  -0.1500 
13    H4      -1.7552  -34.6955   21.7041 H       1  LIG   0.1623   0.1500 
14    C8      -1.2960  -35.6300   19.8690 C.ar    1  LIG  -0.2723  -0.1500 
15    H5      -2.0662  -35.1073   19.3273 H       1  LIG   0.1522   0.1500 
16    C9      -0.4670  -36.5450   19.2400 C.ar    1  LIG   0.4373   0.1600 
17    H6      -0.5947  -36.7554   18.1915 H       1  LIG   0.0280   0.1500 
18    N3       0.5220  -37.2120   19.8740 N.ar    1  LIG  -0.6893  -0.6200 
19    C10      0.7040  -36.9790   21.1800 C.ar    1  LIG   0.6480   0.4100 
20    N4       1.7670  -37.6730   21.8260 N.pl3   1  LIG  -0.6924  -0.3690 
21    C11      2.7540  -36.8570   22.5840 C.ar    1  LIG   0.5805   0.4100 
22    C12      2.9040  -34.5090   25.6010 C.3     1  LIG  -0.0620   0.1435 
23    H7       2.2235  -33.7630   25.2820 H       1  LIG   0.0570   0.0000 
24    H8       2.4436  -35.1154   26.3371 H       1  LIG   0.0495   0.0000 
25    H9       3.7654  -34.0491   26.0108 H       1  LIG   0.0519   0.0000 
26    O1      -1.2400  -35.9060   23.9770 O.2     1  LIG  -0.6361  -0.5700 
27    C13      2.3440  -38.7570   21.0360 C.3     1  LIG   0.1354   0.0690 
28    H10      3.1238  -38.3754   20.4296 H       1  LIG   0.0981   0.1000 
29    C14      2.9380  -39.8900   21.8010 C.3     1  LIG  -0.1181  -0.2000 
30    H11      3.8890  -40.1268   21.3997 H       1  LIG   0.0732   0.1000 
31    H12      3.0430  -39.6129   22.8177 H       1  LIG   0.0789   0.1000 
32    C15      1.6390  -40.0610   21.0880 C.3     1  LIG  -0.1196  -0.2000 
33    H13      0.6832  -39.9283   21.5242 H       1  LIG   0.0807   0.1000 
34    H14      1.5292  -40.4423   20.1061 H       1  LIG   0.0733   0.1000 
@<TRIPOS>BOND
1     2     1     ar
2     3     2     1
3     4     2     ar
4     5     4     1
5     6     4     ar
6     7     6     ar
7     8     7     1
8     9     8     1
9     10    8     1
10    11    10    1
11    12    11    ar
12    13    12    1
13    14    12    ar
14    15    14    1
15    16    14    ar
16    17    16    1
17    18    16    ar
18    19    11    ar
19    19    18    ar
20    20    19    1
21    21    1     ar
22    21    7     ar
23    21    20    1
24    22    6     1
25    23    22    1
26    24    22    1
27    25    22    1
28    26    10    2
29    27    20    1
30    28    27    1
31    29    27    1
32    30    29    1
33    31    29    1
34    32    27    1
35    32    29    1
36    33    32    1
37    34    32    1
@<TRIPOS>SUBSTRUCTURE
1   LIG    1    
 
########## Name        : 1VRT.lig
########## Description : AM1BCC_CHARGES =  -0.0002 ORIGINAL_CHARGES =  -0.0000

@<TRIPOS>MOLECULE
1VRT.lig
34    37    1     0     0    
SMALL
USER_CHARGES
@<TRIPOS>ATOM
1     N1       4.0540  -36.9310   22.2210 N.ar    1  LIG  -0.6650  -0.6200 
2     C1       4.9660  -36.2380   22.9390 C.ar    1  LIG   0.3947   0.1600 
3     H1       6.0082  -36.2811   22.6707 H       1  LIG   0.0281   0.1500 
4     C2       4.6240  -35.4500   24.0360 C.ar    1  LIG  -0.2334  -0.1500 
5     H2       5.3884  -34.9151   24.5740 H       1  LIG   0.1480   0.1500 
6     C3       3.3050  -35.3690   24.4150 C.ar    1  LIG  -0.0698  -0.1435 
7     C4       2.3460  -36.0770   23.6860 C.ar    1  LIG  -0.0398   0.1170 
8     N2       0.9890  -36.0280   24.1030 N.am    1  LIG  -0.4596  -0.5470 
9     H3       0.7643  -35.9928   25.0860 H       1  LIG   0.3311   0.3700 
10    C5      -0.1450  -36.0180   23.4080 C.2     1  LIG   0.7361   0.5438 
11    C6      -0.1190  -36.0770   21.8860 C.ar    1  LIG  -0.2550   0.0862 
12    C7      -1.1230  -35.3990   21.1890 C.ar    1  LIG  -0.0321  -0.1500 
13    H4      -1.7552  -34.6955   21.7041 H       1  LIG   0.1623   0.1500 
14    C8      -1.2960  -35.6300   19.8690 C.ar    1  LIG  -0.2723  -0.1500 
15    H5      -2.0662  -35.1073   19.3273 H       1  LIG   0.1522   0.1500 
16    C9      -0.4670  -36.5450   19.2400 C.ar    1  LIG   0.4373   0.1600 
17    H6      -0.5947  -36.7554   18.1915 H       1  LIG   0.0280   0.1500 
18    N3       0.5220  -37.2120   19.8740 N.ar    1  LIG  -0.6893  -0.6200 
19    C10      0.7040  -36.9790   21.1800 C.ar    1  LIG   0.6480   0.4100 
20    N4       1.7670  -37.6730   21.8260 N.pl3   1  LIG  -0.6924  -0.3690 
21    C11      2.7540  -36.8570   22.5840 C.ar    1  LIG   0.5805   0.4100 
22    C12      2.9040  -34.5090   25.6010 C.3     1  LIG  -0.0620   0.1435 
23    H7       2.2235  -33.7630   25.2820 H       1  LIG   0.0570   0.0000 
24    H8       2.4436  -35.1154   26.3371 H       1  LIG   0.0495   0.0000 
25    H9       3.7654  -34.0491   26.0108 H       1  LIG   0.0519   0.0000 
26    O1      -1.2400  -35.9060   23.9770 O.2     1  LIG  -0.6361  -0.5700 
27    C13      2.3440  -38.7570   21.0360 C.3     1  LIG   0.1354   0.0690 
28    H10      3.1238  -38.3754   20.4296 H       1  LIG   0.0981   0.1000 
29    C14      2.9380  -39.8900   21.8010 C.3     1  LIG  -0.1181  -0.2000 
30    H11      3.8890  -40.1268   21.3997 H       1  LIG   0.0732   0.1000 
31    H12      3.0430  -39.6129   22.8177 H       1  LIG   0.0789   0.1000 
32    C15      1.6390  -40.0610   21.0880 C.3     1  LIG  -0.1196  -0.2000 
33    H13      0.6832  -39.9283   21.5242 H       1  LIG   0.0807   0.1000 
34    H14      1.5292  -40.4423   20.1061 H       1  LIG   0.0733   0.1000 
@<TRIPOS>BOND
1     2     1     ar
2     3     2     1
3     4     2     ar
4     5     4     1
5     6     4     ar
6     7     6     ar
7     8     7     1
8     9     8     1
9     10    8     1
10    11    10    1
11    12    11    ar
12    13    12    1
13    14    12    ar
14    15    14    1
15    16    14    ar
16    17    16    1
17    18    16    ar
18    19    11    ar
19    19    18    ar
20    20    19    1
21    21    1     ar
22    21    7     ar
23    21    20    1
24    22    6     1
25    23    22    1
26    24    22    1
27    25    22    1
28    26    10    2
29    27    20    1
30    28    27    1
31    29    27    1
32    30    29    1
33    31    29    1
34    32    27    1
35    32    29    1
36    33    32    1
37    34    32    1
@<TRIPOS>SUBSTRUCTURE
1   LIG    1    
 
########## Name        : 1VRT.lig
########## Description : AM1BCC_CHARGES =  -0.0002 ORIGINAL_CHARGES =  -0.0000

@<TRIPOS>MOLECULE
1VRT.lig
34    37    1     0     0    
SMALL
USER_CHARGES
@<TRIPOS>ATOM
1     N1       4.0540  -36.9310   22.2210 N.ar    1  LIG  -0.6650  -0.6200 
2     C1       4.9660  -36.2380   22.9390 C.ar    1  LIG   0.3947   0.1600 
3     H1       6.0082  -36.2811   22.6707 H       1  LIG   0.0281   0.1500 
4     C2       4.6240  -35.4500   24.0360 C.ar    1  LIG  -0.2334  -0.1500 
5     H2       5.3884  -34.9151   24.5740 H       1  LIG   0.1480   0.1500 
6     C3       3.3050  -35.3690   24.4150 C.ar    1  LIG  -0.0698  -0.1435 
7     C4       2.3460  -36.0770   23.6860 C.ar    1  LIG  -0.0398   0.1170 
8     N2       0.9890  -36.0280   24.1030 N.am    1  LIG  -0.4596  -0.5470 
9     H3       0.7643  -35.9928   25.0860 H       1  LIG   0.3311   0.3700 
10    C5      -0.1450  -36.0180   23.4080 C.2     1  LIG   0.7361   0.5438 
11    C6      -0.1190  -36.0770   21.8860 C.ar    1  LIG  -0.2550   0.0862 
12    C7      -1.1230  -35.3990   21.1890 C.ar    1  LIG  -0.0321  -0.1500 
13    H4      -1.7552  -34.6955   21.7041 H       1  LIG   0.1623   0.1500 
14    C8      -1.2960  -35.6300   19.8690 C.ar    1  LIG  -0.2723  -0.1500 
15    H5      -2.0662  -35.1073   19.3273 H       1  LIG   0.1522   0.1500 
16    C9      -0.4670  -36.5450   19.2400 C.ar    1  LIG   0.4373   0.1600 
17    H6      -0.5947  -36.7554   18.1915 H       1  LIG   0.0280   0.1500 
18    N3       0.5220  -37.2120   19.8740 N.ar    1  LIG  -0.6893  -0.6200 
19    C10      0.7040  -36.9790   21.1800 C.ar    1  LIG   0.6480   0.4100 
20    N4       1.7670  -37.6730   21.8260 N.pl3   1  LIG  -0.6924  -0.3690 
21    C11      2.7540  -36.8570   22.5840 C.ar    1  LIG   0.5805   0.4100 
22    C12      2.9040  -34.5090   25.6010 C.3     1  LIG  -0.0620   0.1435 
23    H7       2.2235  -33.7630   25.2820 H       1  LIG   0.0570   0.0000 
24    H8       2.4436  -35.1154   26.3371 H       1  LIG   0.0495   0.0000 
25    H9       3.7654  -34.0491   26.0108 H       1  LIG   0.0519   0.0000 
26    O1      -1.2400  -35.9060   23.9770 O.2     1  LIG  -0.6361  -0.5700 
27    C13      2.3440  -38.7570   21.0360 C.3     1  LIG   0.1354   0.0690 
28    H10      3.1238  -38.3754   20.4296 H       1  LIG   0.0981   0.1000 
29    C14      2.9380  -39.8900   21.8010 C.3     1  LIG  -0.1181  -0.2000 
30    H11      3.8890  -40.1268   21.3997 H       1  LIG   0.0732   0.1000 
31    H12      3.0430  -39.6129   22.8177 H       1  LIG   0.0789   0.1000 
32    C15      1.6390  -40.0610   21.0880 C.3     1  LIG  -0.1196  -0.2000 
33    H13      0.6832  -39.9283   21.5242 H       1  LIG   0.0807   0.1000 
34    H14      1.5292  -40.4423   20.1061 H       1  LIG   0.0733   0.1000 
@<TRIPOS>BOND
1     2     1     ar
2     3     2     1
3     4     2     ar
4     5     4     1
5     6     4     ar
6     7     6     ar
7     8     7     1
8     9     8     1
9     10    8     1
10    11    10    1
11    12    11    ar
12    13    12    1
13    14    12    ar
14    15    14    1
15    16    14    ar
16    17    16    1
17    18    16    ar
18    19    11    ar
19    19    18    ar
20    20    19    1
21    21    1     ar
22    21    7     ar
23    21    20    1
24    22    6     1
25    23    22    1
26    24    22    1
27    25    22    1
28    26    10    2
29    27    20    1
30    28    27    1
31    29    27    1
32    30    29    1
33    31    29    1
34    32    27    1
35    32    29    1
36    33    32    1
37    34    32    1
@<TRIPOS>SUBSTRUCTURE
1   LIG    1    
 
########## Name        : 1VRT.lig
########## Description : AM1BCC_CHARGES =  -0.0002 ORIGINAL_CHARGES =  -0.0000

@<TRIPOS>MOLECULE
1VRT.lig
34    37    1     0     0    
SMALL
USER_CHARGES
@<TRIPOS>ATOM
1     N1       4.0540  -36.9310   22.2210 N.ar    1  LIG  -0.6650  -0.6200 
2     C1       4.9660  -36.2380   22.9390 C.ar    1  LIG   0.3947   0.1600 
3     H1       6.0082  -36.2811   22.6707 H       1  LIG   0.0281   0.1500 
4     C2       4.6240  -35.4500   24.0360 C.ar    1  LIG  -0.2334  -0.1500 
5     H2       5.3884  -34.9151   24.5740 H       1  LIG   0.1480   0.1500 
6     C3       3.3050  -35.3690   24.4150 C.ar    1  LIG  -0.0698  -0.1435 
7     C4       2.3460  -36.0770   23.6860 C.ar    1  LIG  -0.0398   0.1170 
8     N2       0.9890  -36.0280   24.1030 N.am    1  LIG  -0.4596  -0.5470 
9     H3       0.7643  -35.9928   25.0860 H       1  LIG   0.3311   0.3700 
10    C5      -0.1450  -36.0180   23.4080 C.2     1  LIG   0.7361   0.5438 
11    C6      -0.1190  -36.0770   21.8860 C.ar    1  LIG  -0.2550   0.0862 
12    C7      -1.1230  -35.3990   21.1890 C.ar    1  LIG  -0.0321  -0.1500 
13    H4      -1.7552  -34.6955   21.7041 H       1  LIG   0.1623   0.1500 
14    C8      -1.2960  -35.6300   19.8690 C.ar    1  LIG  -0.2723  -0.1500 
15    H5      -2.0662  -35.1073   19.3273 H       1  LIG   0.1522   0.1500 
16    C9      -0.4670  -36.5450   19.2400 C.ar    1  LIG   0.4373   0.1600 
17    H6      -0.5947  -36.7554   18.1915 H       1  LIG   0.0280   0.1500 
18    N3       0.5220  -37.2120   19.8740 N.ar    1  LIG  -0.6893  -0.6200 
19    C10      0.7040  -36.9790   21.1800 C.ar    1  LIG   0.6480   0.4100 
20    N4       1.7670  -37.6730   21.8260 N.pl3   1  LIG  -0.6924  -0.3690 
21    C11      2.7540  -36.8570   22.5840 C.ar    1  LIG   0.5805   0.4100 
22    C12      2.9040  -34.5090   25.6010 C.3     1  LIG  -0.0620   0.1435 
23    H7       2.2235  -33.7630   25.2820 H       1  LIG   0.0570   0.0000 
24    H8       2.4436  -35.1154   26.3371 H       1  LIG   0.0495   0.0000 
25    H9       3.7654  -34.0491   26.0108 H       1  LIG   0.0519   0.0000 
26    O1      -1.2400  -35.9060   23.9770 O.2     1  LIG  -0.6361  -0.5700 
27    C13      2.3440  -38.7570   21.0360 C.3     1  LIG   0.1354   0.0690 
28    H10      3.1238  -38.3754   20.4296 H       1  LIG   0.0981   0.1000 
29    C14      2.9380  -39.8900   21.8010 C.3     1  LIG  -0.1181  -0.2000 
30    H11      3.8890  -40.1268   21.3997 H       1  LIG   0.0732   0.1000 
31    H12      3.0430  -39.6129   22.8177 H       1  LIG   0.0789   0.1000 
32    C15      1.6390  -40.0610   21.0880 C.3     1  LIG  -0.1196  -0.2000 
33    H13      0.6832  -39.9283   21.5242 H       1  LIG   0.0807   0.1000 
34    H14      1.5292  -40.4423   20.1061 H       1  LIG   0.0733   0.1000 
@<TRIPOS>BOND
1     2     1     ar
2     3     2     1
3     4     2     ar
4     5     4     1
5     6     4     ar
6     7     6     ar
7     8     7     1
8     9     8     1
9     10    8     1
10    11    10    1
11    12    11    ar
12    13    12    1
13    14    12    ar
14    15    14    1
15    16    14    ar
16    17    16    1
17    18    16    ar
18    19    11    ar
19    19    18    ar
20    20    19    1
21    21    1     ar
22    21    7     ar
23    21    20    1
24    22    6     1
25    23    22    1
26    24    22    1
27    25    22    1
28    26    10    2
29    27    20    1
30    28    27    1
31    29    27    1
32    30    29    1
33    31    29    1
34    32    27    1
35    32    29    1
36    33    32    1
37    34    32    1
@<TRIPOS>SUBSTRUCTURE
1   LIG    1    
 
########## Name        : 1VRT.lig
########## Description : AM1BCC_CHARGES =  -0.0002 ORIGINAL_CHARGES =  -0.0000

@<TRIPOS>MOLECULE
1VRT.lig
34    37    1     0     0    
SMALL
USER_CHARGES
@<TRIPOS>ATOM
1     N1       4.0540  -36.9310   22.2210 N.ar    1  LIG  -0.6650  -0.6200 
2     C1       4.9660  -36.2380   22.9390 C.ar    1  LIG   0.3947   0.1600 
3     H1       6.0082  -36.2811   22.6707 H       1  LIG   0.0281   0.1500 
4     C2       4.6240  -35.4500   24.0360 C.ar    1  LIG  -0.2334  -0.1500 
5     H2       5.3884  -34.9151   24.5740 H       1  LIG   0.1480   0.1500 
6     C3       3.3050  -35.3690   24.4150 C.ar    1  LIG  -0.0698  -0.1435 
7     C4       2.3460  -36.0770   23.6860 C.ar    1  LIG  -0.0398   0.1170 
8     N2       0.9890  -36.0280   24.1030 N.am    1  LIG  -0.4596  -0.5470 
9     H3       0.7643  -35.9928   25.0860 H       1  LIG   0.3311   0.3700 
10    C5      -0.1450  -36.0180   23.4080 C.2     1  LIG   0.7361   0.5438 
11    C6      -0.1190  -36.0770   21.8860 C.ar    1  LIG  -0.2550   0.0862 
12    C7      -1.1230  -35.3990   21.1890 C.ar    1  LIG  -0.0321  -0.1500 
13    H4      -1.7552  -34.6955   21.7041 H       1  LIG   0.1623   0.1500 
14    C8      -1.2960  -35.6300   19.8690 C.ar    1  LIG  -0.2723  -0.1500 
15    H5      -2.0662  -35.1073   19.3273 H       1  LIG   0.1522   0.1500 
16    C9      -0.4670  -36.5450   19.2400 C.ar    1  LIG   0.4373   0.1600 
17    H6      -0.5947  -36.7554   18.1915 H       1  LIG   0.0280   0.1500 
18    N3       0.5220  -37.2120   19.8740 N.ar    1  LIG  -0.6893  -0.6200 
19    C10      0.7040  -36.9790   21.1800 C.ar    1  LIG   0.6480   0.4100 
20    N4       1.7670  -37.6730   21.8260 N.pl3   1  LIG  -0.6924  -0.3690 
21    C11      2.7540  -36.8570   22.5840 C.ar    1  LIG   0.5805   0.4100 
22    C12      2.9040  -34.5090   25.6010 C.3     1  LIG  -0.0620   0.1435 
23    H7       2.2235  -33.7630   25.2820 H       1  LIG   0.0570   0.0000 
24    H8       2.4436  -35.1154   26.3371 H       1  LIG   0.0495   0.0000 
25    H9       3.7654  -34.0491   26.0108 H       1  LIG   0.0519   0.0000 
26    O1      -1.2400  -35.9060   23.9770 O.2     1  LIG  -0.6361  -0.5700 
27    C13      2.3440  -38.7570   21.0360 C.3     1  LIG   0.1354   0.0690 
28    H10      3.1238  -38.3754   20.4296 H       1  LIG   0.0981   0.1000 
29    C14      2.9380  -39.8900   21.8010 C.3     1  LIG  -0.1181  -0.2000 
30    H11      3.8890  -40.1268   21.3997 H       1  LIG   0.0732   0.1000 
31    H12      3.0430  -39.6129   22.8177 H       1  LIG   0.0789   0.1000 
32    C15      1.6390  -40.0610   21.0880 C.3     1  LIG  -0.1196  -0.2000 
33    H13      0.6832  -39.9283   21.5242 H       1  LIG   0.0807   0.1000 
34    H14      1.5292  -40.4423   20.1061 H       1  LIG   0.0733   0.1000 
@<TRIPOS>BOND
1     2     1     ar
2     3     2     1
3     4     2     ar
4     5     4     1
5     6     4     ar
6     7     6     ar
7     8     7     1
8     9     8     1
9     10    8     1
10    11    10    1
11    12    11    ar
12    13    12    1
13    14    12    ar
14    15    14    1
15    16    14    ar
16    17    16    1
17    18    16    ar
18    19    11    ar
19    19    18    ar
20    20    19    1
21    21    1     ar
22    21    7     ar
23    21    20    1
24    22    6     1
25    23    22    1
26    24    22    1
27    25    22    1
28    26    10    2
29    27    20    1
30    28    27    1
31    29    27    1
32    30    29    1
33    31    29    1
34    32    27    1
35    32    29    1
36    33    32    1
37    34    32    1
@<TRIPOS>SUBSTRUCTURE
1   LIG    1    
 
########## Name        : 1VRT.lig
########## Description : AM1BCC_CHARGES =  -0.0002 ORIGINAL_CHARGES =  -0.0000

@<TRIPOS>MOLECULE
1VRT.lig
34    37    1     0     0    
SMALL
USER_CHARGES
@<TRIPOS>ATOM
1     N1       4.0540  -36.9310   22.2210 N.ar    1  LIG  -0.6650  -0.6200 
2     C1       4.9660  -36.2380   22.9390 C.ar    1  LIG   0.3947   0.1600 
3     H1       6.0082  -36.2811   22.6707 H       1  LIG   0.0281   0.1500 
4     C2       4.6240  -35.4500   24.0360 C.ar    1  LIG  -0.2334  -0.1500 
5     H2       5.3884  -34.9151   24.5740 H       1  LIG   0.1480   0.1500 
6     C3       3.3050  -35.3690   24.4150 C.ar    1  LIG  -0.0698  -0.1435 
7     C4       2.3460  -36.0770   23.6860 C.ar    1  LIG  -0.0398   0.1170 
8     N2       0.9890  -36.0280   24.1030 N.am    1  LIG  -0.4596  -0.5470 
9     H3       0.7643  -35.9928   25.0860 H       1  LIG   0.3311   0.3700 
10    C5      -0.1450  -36.0180   23.4080 C.2     1  LIG   0.7361   0.5438 
11    C6      -0.1190  -36.0770   21.8860 C.ar    1  LIG  -0.2550   0.0862 
12    C7      -1.1230  -35.3990   21.1890 C.ar    1  LIG  -0.0321  -0.1500 
13    H4      -1.7552  -34.6955   21.7041 H       1  LIG   0.1623   0.1500 
14    C8      -1.2960  -35.6300   19.8690 C.ar    1  LIG  -0.2723  -0.1500 
15    H5      -2.0662  -35.1073   19.3273 H       1  LIG   0.1522   0.1500 
16    C9      -0.4670  -36.5450   19.2400 C.ar    1  LIG   0.4373   0.1600 
17    H6      -0.5947  -36.7554   18.1915 H       1  LIG   0.0280   0.1500 
18    N3       0.5220  -37.2120   19.8740 N.ar    1  LIG  -0.6893  -0.6200 
19    C10      0.7040  -36.9790   21.1800 C.ar    1  LIG   0.6480   0.4100 
20    N4       1.7670  -37.6730   21.8260 N.pl3   1  LIG  -0.6924  -0.3690 
21    C11      2.7540  -36.8570   22.5840 C.ar    1  LIG   0.5805   0.4100 
22    C12      2.9040  -34.5090   25.6010 C.3     1  LIG  -0.0620   0.1435 
23    H7       2.2235  -33.7630   25.2820 H       1  LIG   0.0570   0.0000 
24    H8       2.4436  -35.1154   26.3371 H       1  LIG   0.0495   0.0000 
25    H9       3.7654  -34.0491   26.0108 H       1  LIG   0.0519   0.0000 
26    O1      -1.2400  -35.9060   23.9770 O.2     1  LIG  -0.6361  -0.5700 
27    C13      2.3440  -38.7570   21.0360 C.3     1  LIG   0.1354   0.0690 
28    H10      3.1238  -38.3754   20.4296 H       1  LIG   0.0981   0.1000 
29    C14      2.9380  -39.8900   21.8010 C.3     1  LIG  -0.1181  -0.2000 
30    H11      3.8890  -40.1268   21.3997 H       1  LIG   0.0732   0.1000 
31    H12      3.0430  -39.6129   22.8177 H       1  LIG   0.0789   0.1000 
32    C15      1.6390  -40.0610   21.0880 C.3     1  LIG  -0.1196  -0.2000 
33    H13      0.6832  -39.9283   21.5242 H       1  LIG   0.0807   0.1000 
34    H14      1.5292  -40.4423   20.1061 H       1  LIG   0.0733   0.1000 
@<TRIPOS>BOND
1     2     1     ar
2     3     2     1
3     4     2     ar
4     5     4     1
5     6     4     ar
6     7     6     ar
7     8     7     1
8     9     8     1
9     10    8     1
10    11    10    1
11    12    11    ar
12    13    12    1
13    14    12    ar
14    15    14    1
15    16    14    ar
16    17    16    1
17    18    16    ar
18    19    11    ar
19    19    18    ar
20    20    19    1
21    21    1     ar
22    21    7     ar
23    21    20    1
24    22    6     1
25    23    22    1
26    24    22    1
27    25    22    1
28    26    10    2
29    27    20    1
30    28    27    1
31    29    27    1
32    30    29    1
33    31    29    1
34    32    27    1
35    32    29    1
36    33    32    1
37    34    32    1
@<TRIPOS>SUBSTRUCTURE
1   LIG    1    
 
########## Name        : 1VRT.lig
########## Description : AM1BCC_CHARGES =  -0.0002 ORIGINAL_CHARGES =  -0.0000

@<TRIPOS>MOLECULE
1VRT.lig
34    37    1     0     0    
SMALL
USER_CHARGES
@<TRIPOS>ATOM
1     N1       4.0540  -36.9310   22.2210 N.ar    1  LIG  -0.6650  -0.6200 
2     C1       4.9660  -36.2380   22.9390 C.ar    1  LIG   0.3947   0.1600 
3     H1       6.0082  -36.2811   22.6707 H       1  LIG   0.0281   0.1500 
4     C2       4.6240  -35.4500   24.0360 C.ar    1  LIG  -0.2334  -0.1500 
5     H2       5.3884  -34.9151   24.5740 H       1  LIG   0.1480   0.1500 
6     C3       3.3050  -35.3690   24.4150 C.ar    1  LIG  -0.0698  -0.1435 
7     C4       2.3460  -36.0770   23.6860 C.ar    1  LIG  -0.0398   0.1170 
8     N2       0.9890  -36.0280   24.1030 N.am    1  LIG  -0.4596  -0.5470 
9     H3       0.7643  -35.9928   25.0860 H       1  LIG   0.3311   0.3700 
10    C5      -0.1450  -36.0180   23.4080 C.2     1  LIG   0.7361   0.5438 
11    C6      -0.1190  -36.0770   21.8860 C.ar    1  LIG  -0.2550   0.0862 
12    C7      -1.1230  -35.3990   21.1890 C.ar    1  LIG  -0.0321  -0.1500 
13    H4      -1.7552  -34.6955   21.7041 H       1  LIG   0.1623   0.1500 
14    C8      -1.2960  -35.6300   19.8690 C.ar    1  LIG  -0.2723  -0.1500 
15    H5      -2.0662  -35.1073   19.3273 H       1  LIG   0.1522   0.1500 
16    C9      -0.4670  -36.5450   19.2400 C.ar    1  LIG   0.4373   0.1600 
17    H6      -0.5947  -36.7554   18.1915 H       1  LIG   0.0280   0.1500 
18    N3       0.5220  -37.2120   19.8740 N.ar    1  LIG  -0.6893  -0.6200 
19    C10      0.7040  -36.9790   21.1800 C.ar    1  LIG   0.6480   0.4100 
20    N4       1.7670  -37.6730   21.8260 N.pl3   1  LIG  -0.6924  -0.3690 
21    C11      2.7540  -36.8570   22.5840 C.ar    1  LIG   0.5805   0.4100 
22    C12      2.9040  -34.5090   25.6010 C.3     1  LIG  -0.0620   0.1435 
23    H7       2.2235  -33.7630   25.2820 H       1  LIG   0.0570   0.0000 
24    H8       2.4436  -35.1154   26.3371 H       1  LIG   0.0495   0.0000 
25    H9       3.7654  -34.0491   26.0108 H       1  LIG   0.0519   0.0000 
26    O1      -1.2400  -35.9060   23.9770 O.2     1  LIG  -0.6361  -0.5700 
27    C13      2.3440  -38.7570   21.0360 C.3     1  LIG   0.1354   0.0690 
28    H10      3.1238  -38.3754   20.4296 H       1  LIG   0.0981   0.1000 
29    C14      2.9380  -39.8900   21.8010 C.3     1  LIG  -0.1181  -0.2000 
30    H11      3.8890  -40.1268   21.3997 H       1  LIG   0.0732   0.1000 
31    H12      3.0430  -39.6129   22.8177 H       1  LIG   0.0789   0.1000 
32    C15      1.6390  -40.0610   21.0880 C.3     1  LIG  -0.1196  -0.2000 
33    H13      0.6832  -39.9283   21.5242 H       1  LIG   0.0807   0.1000 
34    H14      1.5292  -40.4423   20.1061 H       1  LIG   0.0733   0.1000 
@<TRIPOS>BOND
1     2     1     ar
2     3     2     1
3     4     2     ar
4     5     4     1
5     6     4     ar
6     7     6     ar
7     8     7     1
8     9     8     1
9     10    8     1
10    11    10    1
11    12    11    ar
12    13    12    1
13    14    12    ar
14    15    14    1
15    16    14    ar
16    17    16    1
17    18    16    ar
18    19    11    ar
19    19    18    ar
20    20    19    1
21    21    1     ar
22    21    7     ar
23    21    20    1
24    22    6     1
25    23    22    1
26    24    22    1
27    25    22    1
28    26    10    2
29    27    20    1
30    28    27    1
31    29    27    1
32    30    29    1
33    31    29    1
34    32    27    1
35    32    29    1
36    33    32    1
37    34    32    1
@<TRIPOS>SUBSTRUCTURE
1   LIG    1    
 
########## Name        : 1VRT.lig
########## Description : AM1BCC_CHARGES =  -0.0002 ORIGINAL_CHARGES =  -0.0000

@<TRIPOS>MOLECULE
1VRT.lig
34    37    1     0     0    
SMALL
USER_CHARGES
@<TRIPOS>ATOM
1     N1       4.0540  -36.9310   22.2210 N.ar    1  LIG  -0.6650  -0.6200 
2     C1       4.9660  -36.2380   22.9390 C.ar    1  LIG   0.3947   0.1600 
3     H1       6.0082  -36.2811   22.6707 H       1  LIG   0.0281   0.1500 
4     C2       4.6240  -35.4500   24.0360 C.ar    1  LIG  -0.2334  -0.1500 
5     H2       5.3884  -34.9151   24.5740 H       1  LIG   0.1480   0.1500 
6     C3       3.3050  -35.3690   24.4150 C.ar    1  LIG  -0.0698  -0.1435 
7     C4       2.3460  -36.0770   23.6860 C.ar    1  LIG  -0.0398   0.1170 
8     N2       0.9890  -36.0280   24.1030 N.am    1  LIG  -0.4596  -0.5470 
9     H3       0.7643  -35.9928   25.0860 H       1  LIG   0.3311   0.3700 
10    C5      -0.1450  -36.0180   23.4080 C.2     1  LIG   0.7361   0.5438 
11    C6      -0.1190  -36.0770   21.8860 C.ar    1  LIG  -0.2550   0.0862 
12    C7      -1.1230  -35.3990   21.1890 C.ar    1  LIG  -0.0321  -0.1500 
13    H4      -1.7552  -34.6955   21.7041 H       1  LIG   0.1623   0.1500 
14    C8      -1.2960  -35.6300   19.8690 C.ar    1  LIG  -0.2723  -0.1500 
15    H5      -2.0662  -35.1073   19.3273 H       1  LIG   0.1522   0.1500 
16    C9      -0.4670  -36.5450   19.2400 C.ar    1  LIG   0.4373   0.1600 
17    H6      -0.5947  -36.7554   18.1915 H       1  LIG   0.0280   0.1500 
18    N3       0.5220  -37.2120   19.8740 N.ar    1  LIG  -0.6893  -0.6200 
19    C10      0.7040  -36.9790   21.1800 C.ar    1  LIG   0.6480   0.4100 
20    N4       1.7670  -37.6730   21.8260 N.pl3   1  LIG  -0.6924  -0.3690 
21    C11      2.7540  -36.8570   22.5840 C.ar    1  LIG   0.5805   0.4100 
22    C12      2.9040  -34.5090   25.6010 C.3     1  LIG  -0.0620   0.1435 
23    H7       2.2235  -33.7630   25.2820 H       1  LIG   0.0570   0.0000 
24    H8       2.4436  -35.1154   26.3371 H       1  LIG   0.0495   0.0000 
25    H9       3.7654  -34.0491   26.0108 H       1  LIG   0.0519   0.0000 
26    O1      -1.2400  -35.9060   23.9770 O.2     1  LIG  -0.6361  -0.5700 
27    C13      2.3440  -38.7570   21.0360 C.3     1  LIG   0.1354   0.0690 
28    H10      3.1238  -38.3754   20.4296 H       1  LIG   0.0981   0.1000 
29    C14      2.9380  -39.8900   21.8010 C.3     1  LIG  -0.1181  -0.2000 
30    H11      3.8890  -40.1268   21.3997 H       1  LIG   0.0732   0.1000 
31    H12      3.0430  -39.6129   22.8177 H       1  LIG   0.0789   0.1000 
32    C15      1.6390  -40.0610   21.0880 C.3     1  LIG  -0.1196  -0.2000 
33    H13      0.6832  -39.9283   21.5242 H       1  LIG   0.0807   0.1000 
34    H14      1.5292  -40.4423   20.1061 H       1  LIG   0.0733   0.1000 
@<TRIPOS>BOND
1     2     1     ar
2     3     2     1
3     4     2     ar
4     5     4     1
5     6     4     ar
6     7     6     ar
7     8     7     1
8     9     8     1
9     10    8     1
10    11    10    1
11    12    11    ar
12    13    12    1
13    14    12    ar
14    15    14    1
15    16    14    ar
16    17    16    1
17    18    16    ar
18    19    11    ar
19    19    18    ar
20    20    19    1
21    21    1     ar
22    21    7     ar
23    21    20    1
24    22    6     1
25    23    22    1
26    24    22    1
27    25    22    1
28    26    10    2
29    27    20    1
30    28    27    1
31    29    27    1
32    30    29    1
33    31    29    1
34    32    27    1
35    32    29    1
36    33    32    1
37    34    32    1
@<TRIPOS>SUBSTRUCTURE
1   LIG    1    
 
########## Name        : 1VRT.lig
########## Description : AM1BCC_CHARGES =  -0.0002 ORIGINAL_CHARGES =  -0.0000

@<TRIPOS>MOLECULE
1VRT.lig
34    37    1     0     0    
SMALL
USER_CHARGES
@<TRIPOS>ATOM
1     N1       4.0540  -36.9310   22.2210 N.ar    1  LIG  -0.6650  -0.6200 
2     C1       4.9660  -36.2380   22.9390 C.ar    1  LIG   0.3947   0.1600 
3     H1       6.0082  -36.2811   22.6707 H       1  LIG   0.0281   0.1500 
4     C2       4.6240  -35.4500   24.0360 C.ar    1  LIG  -0.2334  -0.1500 
5     H2       5.3884  -34.9151   24.5740 H       1  LIG   0.1480   0.1500 
6     C3       3.3050  -35.3690   24.4150 C.ar    1  LIG  -0.0698  -0.1435 
7     C4       2.3460  -36.0770   23.6860 C.ar    1  LIG  -0.0398   0.1170 
8     N2       0.9890  -36.0280   24.1030 N.am    1  LIG  -0.4596  -0.5470 
9     H3       0.7643  -35.9928   25.0860 H       1  LIG   0.3311   0.3700 
10    C5      -0.1450  -36.0180   23.4080 C.2     1  LIG   0.7361   0.5438 
11    C6      -0.1190  -36.0770   21.8860 C.ar    1  LIG  -0.2550   0.0862 
12    C7      -1.1230  -35.3990   21.1890 C.ar    1  LIG  -0.0321  -0.1500 
13    H4      -1.7552  -34.6955   21.7041 H       1  LIG   0.1623   0.1500 
14    C8      -1.2960  -35.6300   19.8690 C.ar    1  LIG  -0.2723  -0.1500 
15    H5      -2.0662  -35.1073   19.3273 H       1  LIG   0.1522   0.1500 
16    C9      -0.4670  -36.5450   19.2400 C.ar    1  LIG   0.4373   0.1600 
17    H6      -0.5947  -36.7554   18.1915 H       1  LIG   0.0280   0.1500 
18    N3       0.5220  -37.2120   19.8740 N.ar    1  LIG  -0.6893  -0.6200 
19    C10      0.7040  -36.9790   21.1800 C.ar    1  LIG   0.6480   0.4100 
20    N4       1.7670  -37.6730   21.8260 N.pl3   1  LIG  -0.6924  -0.3690 
21    C11      2.7540  -36.8570   22.5840 C.ar    1  LIG   0.5805   0.4100 
22    C12      2.9040  -34.5090   25.6010 C.3     1  LIG  -0.0620   0.1435 
23    H7       2.2235  -33.7630   25.2820 H       1  LIG   0.0570   0.0000 
24    H8       2.4436  -35.1154   26.3371 H       1  LIG   0.0495   0.0000 
25    H9       3.7654  -34.0491   26.0108 H       1  LIG   0.0519   0.0000 
26    O1      -1.2400  -35.9060   23.9770 O.2     1  LIG  -0.6361  -0.5700 
27    C13      2.3440  -38.7570   21.0360 C.3     1  LIG   0.1354   0.0690 
28    H10      3.1238  -38.3754   20.4296 H       1  LIG   0.0981   0.1000 
29    C14      2.9380  -39.8900   21.8010 C.3     1  LIG  -0.1181  -0.2000 
30    H11      3.8890  -40.1268   21.3997 H       1  LIG   0.0732   0.1000 
31    H12      3.0430  -39.6129   22.8177 H       1  LIG   0.0789   0.1000 
32    C15      1.6390  -40.0610   21.0880 C.3     1  LIG  -0.1196  -0.2000 
33    H13      0.6832  -39.9283   21.5242 H       1  LIG   0.0807   0.1000 
34    H14      1.5292  -40.4423   20.1061 H       1  LIG   0.0733   0.1000 
@<TRIPOS>BOND
1     2     1     ar
2     3     2     1
3     4     2     ar
4     5     4     1
5     6     4     ar
6     7     6     ar
7     8     7     1
8     9     8     1
9     10    8     1
10    11    10    1
11    12    11    ar
12    13    12    1
13    14    12    ar
14    15    14    1
15    16    14    ar
16    17    16    1
17    18    16    ar
18    19    11    ar
19    19    18    ar
20    20    19    1
21    21    1     ar
22    21    7     ar
23    21    20    1
24    22    6     1
25    23    22    1
26    24    22    1
27    25    22    1
28    26    10    2
29    27    20    1
30    28    27    1
31    29    27    1
32    30    29    1
33    31    29    1
34    32    27    1
35    32    29    1
36    33    32    1
37    34    32    1
@<TRIPOS>SUBSTRUCTURE
1   LIG    1    
 
########## Name        : 1VRT.lig
########## Description : AM1BCC_CHARGES =  -0.0002 ORIGINAL_CHARGES =  -0.0000

@<TRIPOS>MOLECULE
1VRT.lig
34    37    1     0     0    
SMALL
USER_CHARGES
@<TRIPOS>ATOM
1     N1       4.0540  -36.9310   22.2210 N.ar    1  LIG  -0.6650  -0.6200 
2     C1       4.9660  -36.2380   22.9390 C.ar    1  LIG   0.3947   0.1600 
3     H1       6.0082  -36.2811   22.6707 H       1  LIG   0.0281   0.1500 
4     C2       4.6240  -35.4500   24.0360 C.ar    1  LIG  -0.2334  -0.1500 
5     H2       5.3884  -34.9151   24.5740 H       1  LIG   0.1480   0.1500 
6     C3       3.3050  -35.3690   24.4150 C.ar    1  LIG  -0.0698  -0.1435 
7     C4       2.3460  -36.0770   23.6860 C.ar    1  LIG  -0.0398   0.1170 
8     N2       0.9890  -36.0280   24.1030 N.am    1  LIG  -0.4596  -0.5470 
9     H3       0.7643  -35.9928   25.0860 H       1  LIG   0.3311   0.3700 
10    C5      -0.1450  -36.0180   23.4080 C.2     1  LIG   0.7361   0.5438 
11    C6      -0.1190  -36.0770   21.8860 C.ar    1  LIG  -0.2550   0.0862 
12    C7      -1.1230  -35.3990   21.1890 C.ar    1  LIG  -0.0321  -0.1500 
13    H4      -1.7552  -34.6955   21.7041 H       1  LIG   0.1623   0.1500 
14    C8      -1.2960  -35.6300   19.8690 C.ar    1  LIG  -0.2723  -0.1500 
15    H5      -2.0662  -35.1073   19.3273 H       1  LIG   0.1522   0.1500 
16    C9      -0.4670  -36.5450   19.2400 C.ar    1  LIG   0.4373   0.1600 
17    H6      -0.5947  -36.7554   18.1915 H       1  LIG   0.0280   0.1500 
18    N3       0.5220  -37.2120   19.8740 N.ar    1  LIG  -0.6893  -0.6200 
19    C10      0.7040  -36.9790   21.1800 C.ar    1  LIG   0.6480   0.4100 
20    N4       1.7670  -37.6730   21.8260 N.pl3   1  LIG  -0.6924  -0.3690 
21    C11      2.7540  -36.8570   22.5840 C.ar    1  LIG   0.5805   0.4100 
22    C12      2.9040  -34.5090   25.6010 C.3     1  LIG  -0.0620   0.1435 
23    H7       2.2235  -33.7630   25.2820 H       1  LIG   0.0570   0.0000 
24    H8       2.4436  -35.1154   26.3371 H       1  LIG   0.0495   0.0000 
25    H9       3.7654  -34.0491   26.0108 H       1  LIG   0.0519   0.0000 
26    O1      -1.2400  -35.9060   23.9770 O.2     1  LIG  -0.6361  -0.5700 
27    C13      2.3440  -38.7570   21.0360 C.3     1  LIG   0.1354   0.0690 
28    H10      3.1238  -38.3754   20.4296 H       1  LIG   0.0981   0.1000 
29    C14      2.9380  -39.8900   21.8010 C.3     1  LIG  -0.1181  -0.2000 
30    H11      3.8890  -40.1268   21.3997 H       1  LIG   0.0732   0.1000 
31    H12      3.0430  -39.6129   22.8177 H       1  LIG   0.0789   0.1000 
32    C15      1.6390  -40.0610   21.0880 C.3     1  LIG  -0.1196  -0.2000 
33    H13      0.6832  -39.9283   21.5242 H       1  LIG   0.0807   0.1000 
34    H14      1.5292  -40.4423   20.1061 H       1  LIG   0.0733   0.1000 
@<TRIPOS>BOND
1     2     1     ar
2     3     2     1
3     4     2     ar
4     5     4     1
5     6     4     ar
6     7     6     ar
7     8     7     1
8     9     8     1
9     10    8     1
10    11    10    1
11    12    11    ar
12    13    12    1
13    14    12    ar
14    15    14    1
15    16    14    ar
16    17    16    1
17    18    16    ar
18    19    11    ar
19    19    18    ar
20    20    19    1
21    21    1     ar
22    21    7     ar
23    21    20    1
24    22    6     1
25    23    22    1
26    24    22    1
27    25    22    1
28    26    10    2
29    27    20    1
30    28    27    1
31    29    27    1
32    30    29    1
33    31    29    1
34    32    27    1
35    32    29    1
36    33    32    1
37    34    32    1
@<TRIPOS>SUBSTRUCTURE
1   LIG    1    
 
########## Name        : 1VRT.lig
########## Description : AM1BCC_CHARGES =  -0.0002 ORIGINAL_CHARGES =  -0.0000

@<TRIPOS>MOLECULE
1VRT.lig
34    37    1     0     0    
SMALL
USER_CHARGES
@<TRIPOS>ATOM
1     N1       4.0540  -36.9310   22.2210 N.ar    1  LIG  -0.6650  -0.6200 
2     C1       4.9660  -36.2380   22.9390 C.ar    1  LIG   0.3947   0.1600 
3     H1       6.0082  -36.2811   22.6707 H       1  LIG   0.0281   0.1500 
4     C2       4.6240  -35.4500   24.0360 C.ar    1  LIG  -0.2334  -0.1500 
5     H2       5.3884  -34.9151   24.5740 H       1  LIG   0.1480   0.1500 
6     C3       3.3050  -35.3690   24.4150 C.ar    1  LIG  -0.0698  -0.1435 
7     C4       2.3460  -36.0770   23.6860 C.ar    1  LIG  -0.0398   0.1170 
8     N2       0.9890  -36.0280   24.1030 N.am    1  LIG  -0.4596  -0.5470 
9     H3       0.7643  -35.9928   25.0860 H       1  LIG   0.3311   0.3700 
10    C5      -0.1450  -36.0180   23.4080 C.2     1  LIG   0.7361   0.5438 
11    C6      -0.1190  -36.0770   21.8860 C.ar    1  LIG  -0.2550   0.0862 
12    C7      -1.1230  -35.3990   21.1890 C.ar    1  LIG  -0.0321  -0.1500 
13    H4      -1.7552  -34.6955   21.7041 H       1  LIG   0.1623   0.1500 
14    C8      -1.2960  -35.6300   19.8690 C.ar    1  LIG  -0.2723  -0.1500 
15    H5      -2.0662  -35.1073   19.3273 H       1  LIG   0.1522   0.1500 
16    C9      -0.4670  -36.5450   19.2400 C.ar    1  LIG   0.4373   0.1600 
17    H6      -0.5947  -36.7554   18.1915 H       1  LIG   0.0280   0.1500 
18    N3       0.5220  -37.2120   19.8740 N.ar    1  LIG  -0.6893  -0.6200 
19    C10      0.7040  -36.9790   21.1800 C.ar    1  LIG   0.6480   0.4100 
20    N4       1.7670  -37.6730   21.8260 N.pl3   1  LIG  -0.6924  -0.3690 
21    C11      2.7540  -36.8570   22.5840 C.ar    1  LIG   0.5805   0.4100 
22    C12      2.9040  -34.5090   25.6010 C.3     1  LIG  -0.0620   0.1435 
23    H7       2.2235  -33.7630   25.2820 H       1  LIG   0.0570   0.0000 
24    H8       2.4436  -35.1154   26.3371 H       1  LIG   0.0495   0.0000 
25    H9       3.7654  -34.0491   26.0108 H       1  LIG   0.0519   0.0000 
26    O1      -1.2400  -35.9060   23.9770 O.2     1  LIG  -0.6361  -0.5700 
27    C13      2.3440  -38.7570   21.0360 C.3     1  LIG   0.1354   0.0690 
28    H10      3.1238  -38.3754   20.4296 H       1  LIG   0.0981   0.1000 
29    C14      2.9380  -39.8900   21.8010 C.3     1  LIG  -0.1181  -0.2000 
30    H11      3.8890  -40.1268   21.3997 H       1  LIG   0.0732   0.1000 
31    H12      3.0430  -39.6129   22.8177 H       1  LIG   0.0789   0.1000 
32    C15      1.6390  -40.0610   21.0880 C.3     1  LIG  -0.1196  -0.2000 
33    H13      0.6832  -39.9283   21.5242 H       1  LIG   0.0807   0.1000 
34    H14      1.5292  -40.4423   20.1061 H       1  LIG   0.0733   0.1000 
@<TRIPOS>BOND
1     2     1     ar
2     3     2     1
3     4     2     ar
4     5     4     1
5     6     4     ar
6     7     6     ar
7     8     7     1
8     9     8     1
9     10    8     1
10    11    10    1
11    12    11    ar
12    13    12    1
13    14    12    ar
14    15    14    1
15    16    14    ar
16    17    16    1
17    18    16    ar
18    19    11    ar
19    19    18    ar
20    20    19    1
21    21    1     ar
22    21    7     ar
23    21    20    1
24    22    6     1
25    23    22    1
26    24    22    1
27    25    22    1
28    26    10    2
29    27    20    1
30    28    27    1
31    29    27    1
32    30    29    1
33    31    29    1
34    32    27    1
35    32    29    1
36    33    32    1
37    34    32    1
@<TRIPOS>SUBSTRUCTURE
1   LIG    1    
 
########## Name        : 1VRT.lig
########## Description : AM1BCC_CHARGES =  -0.0002 ORIGINAL_CHARGES =  -0.0000

@<TRIPOS>MOLECULE
1VRT.lig
34    37    1     0     0    
SMALL
USER_CHARGES
@<TRIPOS>ATOM
1     N1       4.0540  -36.9310   22.2210 N.ar    1  LIG  -0.6650  -0.6200 
2     C1       4.9660  -36.2380   22.9390 C.ar    1  LIG   0.3947   0.1600 
3     H1       6.0082  -36.2811   22.6707 H       1  LIG   0.0281   0.1500 
4     C2       4.6240  -35.4500   24.0360 C.ar    1  LIG  -0.2334  -0.1500 
5     H2       5.3884  -34.9151   24.5740 H       1  LIG   0.1480   0.1500 
6     C3       3.3050  -35.3690   24.4150 C.ar    1  LIG  -0.0698  -0.1435 
7     C4       2.3460  -36.0770   23.6860 C.ar    1  LIG  -0.0398   0.1170 
8     N2       0.9890  -36.0280   24.1030 N.am    1  LIG  -0.4596  -0.5470 
9     H3       0.7643  -35.9928   25.0860 H       1  LIG   0.3311   0.3700 
10    C5      -0.1450  -36.0180   23.4080 C.2     1  LIG   0.7361   0.5438 
11    C6      -0.1190  -36.0770   21.8860 C.ar    1  LIG  -0.2550   0.0862 
12    C7      -1.1230  -35.3990   21.1890 C.ar    1  LIG  -0.0321  -0.1500 
13    H4      -1.7552  -34.6955   21.7041 H       1  LIG   0.1623   0.1500 
14    C8      -1.2960  -35.6300   19.8690 C.ar    1  LIG  -0.2723  -0.1500 
15    H5      -2.0662  -35.1073   19.3273 H       1  LIG   0.1522   0.1500 
16    C9      -0.4670  -36.5450   19.2400 C.ar    1  LIG   0.4373   0.1600 
17    H6      -0.5947  -36.7554   18.1915 H       1  LIG   0.0280   0.1500 
18    N3       0.5220  -37.2120   19.8740 N.ar    1  LIG  -0.6893  -0.6200 
19    C10      0.7040  -36.9790   21.1800 C.ar    1  LIG   0.6480   0.4100 
20    N4       1.7670  -37.6730   21.8260 N.pl3   1  LIG  -0.6924  -0.3690 
21    C11      2.7540  -36.8570   22.5840 C.ar    1  LIG   0.5805   0.4100 
22    C12      2.9040  -34.5090   25.6010 C.3     1  LIG  -0.0620   0.1435 
23    H7       2.2235  -33.7630   25.2820 H       1  LIG   0.0570   0.0000 
24    H8       2.4436  -35.1154   26.3371 H       1  LIG   0.0495   0.0000 
25    H9       3.7654  -34.0491   26.0108 H       1  LIG   0.0519   0.0000 
26    O1      -1.2400  -35.9060   23.9770 O.2     1  LIG  -0.6361  -0.5700 
27    C13      2.3440  -38.7570   21.0360 C.3     1  LIG   0.1354   0.0690 
28    H10      3.1238  -38.3754   20.4296 H       1  LIG   0.0981   0.1000 
29    C14      2.9380  -39.8900   21.8010 C.3     1  LIG  -0.1181  -0.2000 
30    H11      3.8890  -40.1268   21.3997 H       1  LIG   0.0732   0.1000 
31    H12      3.0430  -39.6129   22.8177 H       1  LIG   0.0789   0.1000 
32    C15      1.6390  -40.0610   21.0880 C.3     1  LIG  -0.1196  -0.2000 
33    H13      0.6832  -39.9283   21.5242 H       1  LIG   0.0807   0.1000 
34    H14      1.5292  -40.4423   20.1061 H       1  LIG   0.0733   0.1000 
@<TRIPOS>BOND
1     2     1     ar
2     3     2     1
3     4     2     ar
4     5     4     1
5     6     4     ar
6     7     6     ar
7     8     7     1
8     9     8     1
9     10    8     1
10    11    10    1
11    12    11    ar
12    13    12    1
13    14    12    ar
14    15    14    1
15    16    14    ar
16    17    16    1
17    18    16    ar
18    19    11    ar
19    19    18    ar
20    20    19    1
21    21    1     ar
22    21    7     ar
23    21    20    1
24    22    6     1
25    23    22    1
26    24    22    1
27    25    22    1
28    26    10    2
29    27    20    1
30    28    27    1
31    29    27    1
32    30    29    1
33    31    29    1
34    32    27    1
35    32    29    1
36    33    32    1
37    34    32    1
@<TRIPOS>SUBSTRUCTURE
1   LIG    1    
 
########## Name        : 1VRT.lig
########## Description : AM1BCC_CHARGES =  -0.0002 ORIGINAL_CHARGES =  -0.0000

@<TRIPOS>MOLECULE
1VRT.lig
34    37    1     0     0    
SMALL
USER_CHARGES
@<TRIPOS>ATOM
1     N1       4.0540  -36.9310   22.2210 N.ar    1  LIG  -0.6650  -0.6200 
2     C1       4.9660  -36.2380   22.9390 C.ar    1  LIG   0.3947   0.1600 
3     H1       6.0082  -36.2811   22.6707 H       1  LIG   0.0281   0.1500 
4     C2       4.6240  -35.4500   24.0360 C.ar    1  LIG  -0.2334  -0.1500 
5     H2       5.3884  -34.9151   24.5740 H       1  LIG   0.1480   0.1500 
6     C3       3.3050  -35.3690   24.4150 C.ar    1  LIG  -0.0698  -0.1435 
7     C4       2.3460  -36.0770   23.6860 C.ar    1  LIG  -0.0398   0.1170 
8     N2       0.9890  -36.0280   24.1030 N.am    1  LIG  -0.4596  -0.5470 
9     H3       0.7643  -35.9928   25.0860 H       1  LIG   0.3311   0.3700 
10    C5      -0.1450  -36.0180   23.4080 C.2     1  LIG   0.7361   0.5438 
11    C6      -0.1190  -36.0770   21.8860 C.ar    1  LIG  -0.2550   0.0862 
12    C7      -1.1230  -35.3990   21.1890 C.ar    1  LIG  -0.0321  -0.1500 
13    H4      -1.7552  -34.6955   21.7041 H       1  LIG   0.1623   0.1500 
14    C8      -1.2960  -35.6300   19.8690 C.ar    1  LIG  -0.2723  -0.1500 
15    H5      -2.0662  -35.1073   19.3273 H       1  LIG   0.1522   0.1500 
16    C9      -0.4670  -36.5450   19.2400 C.ar    1  LIG   0.4373   0.1600 
17    H6      -0.5947  -36.7554   18.1915 H       1  LIG   0.0280   0.1500 
18    N3       0.5220  -37.2120   19.8740 N.ar    1  LIG  -0.6893  -0.6200 
19    C10      0.7040  -36.9790   21.1800 C.ar    1  LIG   0.6480   0.4100 
20    N4       1.7670  -37.6730   21.8260 N.pl3   1  LIG  -0.6924  -0.3690 
21    C11      2.7540  -36.8570   22.5840 C.ar    1  LIG   0.5805   0.4100 
22    C12      2.9040  -34.5090   25.6010 C.3     1  LIG  -0.0620   0.1435 
23    H7       2.2235  -33.7630   25.2820 H       1  LIG   0.0570   0.0000 
24    H8       2.4436  -35.1154   26.3371 H       1  LIG   0.0495   0.0000 
25    H9       3.7654  -34.0491   26.0108 H       1  LIG   0.0519   0.0000 
26    O1      -1.2400  -35.9060   23.9770 O.2     1  LIG  -0.6361  -0.5700 
27    C13      2.3440  -38.7570   21.0360 C.3     1  LIG   0.1354   0.0690 
28    H10      3.1238  -38.3754   20.4296 H       1  LIG   0.0981   0.1000 
29    C14      2.9380  -39.8900   21.8010 C.3     1  LIG  -0.1181  -0.2000 
30    H11      3.8890  -40.1268   21.3997 H       1  LIG   0.0732   0.1000 
31    H12      3.0430  -39.6129   22.8177 H       1  LIG   0.0789   0.1000 
32    C15      1.6390  -40.0610   21.0880 C.3     1  LIG  -0.1196  -0.2000 
33    H13      0.6832  -39.9283   21.5242 H       1  LIG   0.0807   0.1000 
34    H14      1.5292  -40.4423   20.1061 H       1  LIG   0.0733   0.1000 
@<TRIPOS>BOND
1     2     1     ar
2     3     2     1
3     4     2     ar
4     5     4     1
5     6     4     ar
6     7     6     ar
7     8     7     1
8     9     8     1
9     10    8     1
10    11    10    1
11    12    11    ar
12    13    12    1
13    14    12    ar
14    15    14    1
15    16    14    ar
16    17    16    1
17    18    16    ar
18    19    11    ar
19    19    18    ar
20    20    19    1
21    21    1     ar
22    21    7     ar
23    21    20    1
24    22    6     1
25    23    22    1
26    24    22    1
27    25    22    1
28    26    10    2
29    27    20    1
30    28    27    1
31    29    27    1
32    30    29    1
33    31    29    1
34    32    27    1
35    32    29    1
36    33    32    1
37    34    32    1
@<TRIPOS>SUBSTRUCTURE
1   LIG    1    
 
########## Name        : 1VRT.lig
########## Description : AM1BCC_CHARGES =  -0.0002 ORIGINAL_CHARGES =  -0.0000

@<TRIPOS>MOLECULE
1VRT.lig
34    37    1     0     0    
SMALL
USER_CHARGES
@<TRIPOS>ATOM
1     N1       4.0540  -36.9310   22.2210 N.ar    1  LIG  -0.6650  -0.6200 
2     C1       4.9660  -36.2380   22.9390 C.ar    1  LIG   0.3947   0.1600 
3     H1       6.0082  -36.2811   22.6707 H       1  LIG   0.0281   0.1500 
4     C2       4.6240  -35.4500   24.0360 C.ar    1  LIG  -0.2334  -0.1500 
5     H2       5.3884  -34.9151   24.5740 H       1  LIG   0.1480   0.1500 
6     C3       3.3050  -35.3690   24.4150 C.ar    1  LIG  -0.0698  -0.1435 
7     C4       2.3460  -36.0770   23.6860 C.ar    1  LIG  -0.0398   0.1170 
8     N2       0.9890  -36.0280   24.1030 N.am    1  LIG  -0.4596  -0.5470 
9     H3       0.7643  -35.9928   25.0860 H       1  LIG   0.3311   0.3700 
10    C5      -0.1450  -36.0180   23.4080 C.2     1  LIG   0.7361   0.5438 
11    C6      -0.1190  -36.0770   21.8860 C.ar    1  LIG  -0.2550   0.0862 
12    C7      -1.1230  -35.3990   21.1890 C.ar    1  LIG  -0.0321  -0.1500 
13    H4      -1.7552  -34.6955   21.7041 H       1  LIG   0.1623   0.1500 
14    C8      -1.2960  -35.6300   19.8690 C.ar    1  LIG  -0.2723  -0.1500 
15    H5      -2.0662  -35.1073   19.3273 H       1  LIG   0.1522   0.1500 
16    C9      -0.4670  -36.5450   19.2400 C.ar    1  LIG   0.4373   0.1600 
17    H6      -0.5947  -36.7554   18.1915 H       1  LIG   0.0280   0.1500 
18    N3       0.5220  -37.2120   19.8740 N.ar    1  LIG  -0.6893  -0.6200 
19    C10      0.7040  -36.9790   21.1800 C.ar    1  LIG   0.6480   0.4100 
20    N4       1.7670  -37.6730   21.8260 N.pl3   1  LIG  -0.6924  -0.3690 
21    C11      2.7540  -36.8570   22.5840 C.ar    1  LIG   0.5805   0.4100 
22    C12      2.9040  -34.5090   25.6010 C.3     1  LIG  -0.0620   0.1435 
23    H7       2.2235  -33.7630   25.2820 H       1  LIG   0.0570   0.0000 
24    H8       2.4436  -35.1154   26.3371 H       1  LIG   0.0495   0.0000 
25    H9       3.7654  -34.0491   26.0108 H       1  LIG   0.0519   0.0000 
26    O1      -1.2400  -35.9060   23.9770 O.2     1  LIG  -0.6361  -0.5700 
27    C13      2.3440  -38.7570   21.0360 C.3     1  LIG   0.1354   0.0690 
28    H10      3.1238  -38.3754   20.4296 H       1  LIG   0.0981   0.1000 
29    C14      2.9380  -39.8900   21.8010 C.3     1  LIG  -0.1181  -0.2000 
30    H11      3.8890  -40.1268   21.3997 H       1  LIG   0.0732   0.1000 
31    H12      3.0430  -39.6129   22.8177 H       1  LIG   0.0789   0.1000 
32    C15      1.6390  -40.0610   21.0880 C.3     1  LIG  -0.1196  -0.2000 
33    H13      0.6832  -39.9283   21.5242 H       1  LIG   0.0807   0.1000 
34    H14      1.5292  -40.4423   20.1061 H       1  LIG   0.0733   0.1000 
@<TRIPOS>BOND
1     2     1     ar
2     3     2     1
3     4     2     ar
4     5     4     1
5     6     4     ar
6     7     6     ar
7     8     7     1
8     9     8     1
9     10    8     1
10    11    10    1
11    12    11    ar
12    13    12    1
13    14    12    ar
14    15    14    1
15    16    14    ar
16    17    16    1
17    18    16    ar
18    19    11    ar
19    19    18    ar
20    20    19    1
21    21    1     ar
22    21    7     ar
23    21    20    1
24    22    6     1
25    23    22    1
26    24    22    1
27    25    22    1
28    26    10    2
29    27    20    1
30    28    27    1
31    29    27    1
32    30    29    1
33    31    29    1
34    32    27    1
35    32    29    1
36    33    32    1
37    34    32    1
@<TRIPOS>SUBSTRUCTURE
1   LIG    1    
 
########## Name        : 1VRT.lig
########## Description : AM1BCC_CHARGES =  -0.0002 ORIGINAL_CHARGES =  -0.0000

@<TRIPOS>MOLECULE
1VRT.lig
34    37    1     0     0    
SMALL
USER_CHARGES
@<TRIPOS>ATOM
1     N1       4.0540  -36.9310   22.2210 N.ar    1  LIG  -0.6650  -0.6200 
2     C1       4.9660  -36.2380   22.9390 C.ar    1  LIG   0.3947   0.1600 
3     H1       6.0082  -36.2811   22.6707 H       1  LIG   0.0281   0.1500 
4     C2       4.6240  -35.4500   24.0360 C.ar    1  LIG  -0.2334  -0.1500 
5     H2       5.3884  -34.9151   24.5740 H       1  LIG   0.1480   0.1500 
6     C3       3.3050  -35.3690   24.4150 C.ar    1  LIG  -0.0698  -0.1435 
7     C4       2.3460  -36.0770   23.6860 C.ar    1  LIG  -0.0398   0.1170 
8     N2       0.9890  -36.0280   24.1030 N.am    1  LIG  -0.4596  -0.5470 
9     H3       0.7643  -35.9928   25.0860 H       1  LIG   0.3311   0.3700 
10    C5      -0.1450  -36.0180   23.4080 C.2     1  LIG   0.7361   0.5438 
11    C6      -0.1190  -36.0770   21.8860 C.ar    1  LIG  -0.2550   0.0862 
12    C7      -1.1230  -35.3990   21.1890 C.ar    1  LIG  -0.0321  -0.1500 
13    H4      -1.7552  -34.6955   21.7041 H       1  LIG   0.1623   0.1500 
14    C8      -1.2960  -35.6300   19.8690 C.ar    1  LIG  -0.2723  -0.1500 
15    H5      -2.0662  -35.1073   19.3273 H       1  LIG   0.1522   0.1500 
16    C9      -0.4670  -36.5450   19.2400 C.ar    1  LIG   0.4373   0.1600 
17    H6      -0.5947  -36.7554   18.1915 H       1  LIG   0.0280   0.1500 
18    N3       0.5220  -37.2120   19.8740 N.ar    1  LIG  -0.6893  -0.6200 
19    C10      0.7040  -36.9790   21.1800 C.ar    1  LIG   0.6480   0.4100 
20    N4       1.7670  -37.6730   21.8260 N.pl3   1  LIG  -0.6924  -0.3690 
21    C11      2.7540  -36.8570   22.5840 C.ar    1  LIG   0.5805   0.4100 
22    C12      2.9040  -34.5090   25.6010 C.3     1  LIG  -0.0620   0.1435 
23    H7       2.2235  -33.7630   25.2820 H       1  LIG   0.0570   0.0000 
24    H8       2.4436  -35.1154   26.3371 H       1  LIG   0.0495   0.0000 
25    H9       3.7654  -34.0491   26.0108 H       1  LIG   0.0519   0.0000 
26    O1      -1.2400  -35.9060   23.9770 O.2     1  LIG  -0.6361  -0.5700 
27    C13      2.3440  -38.7570   21.0360 C.3     1  LIG   0.1354   0.0690 
28    H10      3.1238  -38.3754   20.4296 H       1  LIG   0.0981   0.1000 
29    C14      2.9380  -39.8900   21.8010 C.3     1  LIG  -0.1181  -0.2000 
30    H11      3.8890  -40.1268   21.3997 H       1  LIG   0.0732   0.1000 
31    H12      3.0430  -39.6129   22.8177 H       1  LIG   0.0789   0.1000 
32    C15      1.6390  -40.0610   21.0880 C.3     1  LIG  -0.1196  -0.2000 
33    H13      0.6832  -39.9283   21.5242 H       1  LIG   0.0807   0.1000 
34    H14      1.5292  -40.4423   20.1061 H       1  LIG   0.0733   0.1000 
@<TRIPOS>BOND
1     2     1     ar
2     3     2     1
3     4     2     ar
4     5     4     1
5     6     4     ar
6     7     6     ar
7     8     7     1
8     9     8     1
9     10    8     1
10    11    10    1
11    12    11    ar
12    13    12    1
13    14    12    ar
14    15    14    1
15    16    14    ar
16    17    16    1
17    18    16    ar
18    19    11    ar
19    19    18    ar
20    20    19    1
21    21    1     ar
22    21    7     ar
23    21    20    1
24    22    6     1
25    23    22    1
26    24    22    1
27    25    22    1
28    26    10    2
29    27    20    1
30    28    27    1
31    29    27    1
32    30    29    1
33    31    29    1
34    32    27    1
35    32    29    1
36    33    32    1
37    34    32    1
@<TRIPOS>SUBSTRUCTURE
1   LIG    1    
 
########## Name        : 1VRT.lig
########## Description : AM1BCC_CHARGES =  -0.0002 ORIGINAL_CHARGES =  -0.0000

@<TRIPOS>MOLECULE
1VRT.lig
34    37    1     0     0    
SMALL
USER_CHARGES
@<TRIPOS>ATOM
1     N1       4.0540  -36.9310   22.2210 N.ar    1  LIG  -0.6650  -0.6200 
2     C1       4.9660  -36.2380   22.9390 C.ar    1  LIG   0.3947   0.1600 
3     H1       6.0082  -36.2811   22.6707 H       1  LIG   0.0281   0.1500 
4     C2       4.6240  -35.4500   24.0360 C.ar    1  LIG  -0.2334  -0.1500 
5     H2       5.3884  -34.9151   24.5740 H       1  LIG   0.1480   0.1500 
6     C3       3.3050  -35.3690   24.4150 C.ar    1  LIG  -0.0698  -0.1435 
7     C4       2.3460  -36.0770   23.6860 C.ar    1  LIG  -0.0398   0.1170 
8     N2       0.9890  -36.0280   24.1030 N.am    1  LIG  -0.4596  -0.5470 
9     H3       0.7643  -35.9928   25.0860 H       1  LIG   0.3311   0.3700 
10    C5      -0.1450  -36.0180   23.4080 C.2     1  LIG   0.7361   0.5438 
11    C6      -0.1190  -36.0770   21.8860 C.ar    1  LIG  -0.2550   0.0862 
12    C7      -1.1230  -35.3990   21.1890 C.ar    1  LIG  -0.0321  -0.1500 
13    H4      -1.7552  -34.6955   21.7041 H       1  LIG   0.1623   0.1500 
14    C8      -1.2960  -35.6300   19.8690 C.ar    1  LIG  -0.2723  -0.1500 
15    H5      -2.0662  -35.1073   19.3273 H       1  LIG   0.1522   0.1500 
16    C9      -0.4670  -36.5450   19.2400 C.ar    1  LIG   0.4373   0.1600 
17    H6      -0.5947  -36.7554   18.1915 H       1  LIG   0.0280   0.1500 
18    N3       0.5220  -37.2120   19.8740 N.ar    1  LIG  -0.6893  -0.6200 
19    C10      0.7040  -36.9790   21.1800 C.ar    1  LIG   0.6480   0.4100 
20    N4       1.7670  -37.6730   21.8260 N.pl3   1  LIG  -0.6924  -0.3690 
21    C11      2.7540  -36.8570   22.5840 C.ar    1  LIG   0.5805   0.4100 
22    C12      2.9040  -34.5090   25.6010 C.3     1  LIG  -0.0620   0.1435 
23    H7       2.2235  -33.7630   25.2820 H       1  LIG   0.0570   0.0000 
24    H8       2.4436  -35.1154   26.3371 H       1  LIG   0.0495   0.0000 
25    H9       3.7654  -34.0491   26.0108 H       1  LIG   0.0519   0.0000 
26    O1      -1.2400  -35.9060   23.9770 O.2     1  LIG  -0.6361  -0.5700 
27    C13      2.3440  -38.7570   21.0360 C.3     1  LIG   0.1354   0.0690 
28    H10      3.1238  -38.3754   20.4296 H       1  LIG   0.0981   0.1000 
29    C14      2.9380  -39.8900   21.8010 C.3     1  LIG  -0.1181  -0.2000 
30    H11      3.8890  -40.1268   21.3997 H       1  LIG   0.0732   0.1000 
31    H12      3.0430  -39.6129   22.8177 H       1  LIG   0.0789   0.1000 
32    C15      1.6390  -40.0610   21.0880 C.3     1  LIG  -0.1196  -0.2000 
33    H13      0.6832  -39.9283   21.5242 H       1  LIG   0.0807   0.1000 
34    H14      1.5292  -40.4423   20.1061 H       1  LIG   0.0733   0.1000 
@<TRIPOS>BOND
1     2     1     ar
2     3     2     1
3     4     2     ar
4     5     4     1
5     6     4     ar
6     7     6     ar
7     8     7     1
8     9     8     1
9     10    8     1
10    11    10    1
11    12    11    ar
12    13    12    1
13    14    12    ar
14    15    14    1
15    16    14    ar
16    17    16    1
17    18    16    ar
18    19    11    ar
19    19    18    ar
20    20    19    1
21    21    1     ar
22    21    7     ar
23    21    20    1
24    22    6     1
25    23    22    1
26    24    22    1
27    25    22    1
28    26    10    2
29    27    20    1
30    28    27    1
31    29    27    1
32    30    29    1
33    31    29    1
34    32    27    1
35    32    29    1
36    33    32    1
37    34    32    1
@<TRIPOS>SUBSTRUCTURE
1   LIG    1    
 
########## Name        : 1VRT.lig
########## Description : AM1BCC_CHARGES =  -0.0002 ORIGINAL_CHARGES =  -0.0000

@<TRIPOS>MOLECULE
1VRT.lig
34    37    1     0     0    
SMALL
USER_CHARGES
@<TRIPOS>ATOM
1     N1       4.0540  -36.9310   22.2210 N.ar    1  LIG  -0.6650  -0.6200 
2     C1       4.9660  -36.2380   22.9390 C.ar    1  LIG   0.3947   0.1600 
3     H1       6.0082  -36.2811   22.6707 H       1  LIG   0.0281   0.1500 
4     C2       4.6240  -35.4500   24.0360 C.ar    1  LIG  -0.2334  -0.1500 
5     H2       5.3884  -34.9151   24.5740 H       1  LIG   0.1480   0.1500 
6     C3       3.3050  -35.3690   24.4150 C.ar    1  LIG  -0.0698  -0.1435 
7     C4       2.3460  -36.0770   23.6860 C.ar    1  LIG  -0.0398   0.1170 
8     N2       0.9890  -36.0280   24.1030 N.am    1  LIG  -0.4596  -0.5470 
9     H3       0.7643  -35.9928   25.0860 H       1  LIG   0.3311   0.3700 
10    C5      -0.1450  -36.0180   23.4080 C.2     1  LIG   0.7361   0.5438 
11    C6      -0.1190  -36.0770   21.8860 C.ar    1  LIG  -0.2550   0.0862 
12    C7      -1.1230  -35.3990   21.1890 C.ar    1  LIG  -0.0321  -0.1500 
13    H4      -1.7552  -34.6955   21.7041 H       1  LIG   0.1623   0.1500 
14    C8      -1.2960  -35.6300   19.8690 C.ar    1  LIG  -0.2723  -0.1500 
15    H5      -2.0662  -35.1073   19.3273 H       1  LIG   0.1522   0.1500 
16    C9      -0.4670  -36.5450   19.2400 C.ar    1  LIG   0.4373   0.1600 
17    H6      -0.5947  -36.7554   18.1915 H       1  LIG   0.0280   0.1500 
18    N3       0.5220  -37.2120   19.8740 N.ar    1  LIG  -0.6893  -0.6200 
19    C10      0.7040  -36.9790   21.1800 C.ar    1  LIG   0.6480   0.4100 
20    N4       1.7670  -37.6730   21.8260 N.pl3   1  LIG  -0.6924  -0.3690 
21    C11      2.7540  -36.8570   22.5840 C.ar    1  LIG   0.5805   0.4100 
22    C12      2.9040  -34.5090   25.6010 C.3     1  LIG  -0.0620   0.1435 
23    H7       2.2235  -33.7630   25.2820 H       1  LIG   0.0570   0.0000 
24    H8       2.4436  -35.1154   26.3371 H       1  LIG   0.0495   0.0000 
25    H9       3.7654  -34.0491   26.0108 H       1  LIG   0.0519   0.0000 
26    O1      -1.2400  -35.9060   23.9770 O.2     1  LIG  -0.6361  -0.5700 
27    C13      2.3440  -38.7570   21.0360 C.3     1  LIG   0.1354   0.0690 
28    H10      3.1238  -38.3754   20.4296 H       1  LIG   0.0981   0.1000 
29    C14      2.9380  -39.8900   21.8010 C.3     1  LIG  -0.1181  -0.2000 
30    H11      3.8890  -40.1268   21.3997 H       1  LIG   0.0732   0.1000 
31    H12      3.0430  -39.6129   22.8177 H       1  LIG   0.0789   0.1000 
32    C15      1.6390  -40.0610   21.0880 C.3     1  LIG  -0.1196  -0.2000 
33    H13      0.6832  -39.9283   21.5242 H       1  LIG   0.0807   0.1000 
34    H14      1.5292  -40.4423   20.1061 H       1  LIG   0.0733   0.1000 
@<TRIPOS>BOND
1     2     1     ar
2     3     2     1
3     4     2     ar
4     5     4     1
5     6     4     ar
6     7     6     ar
7     8     7     1
8     9     8     1
9     10    8     1
10    11    10    1
11    12    11    ar
12    13    12    1
13    14    12    ar
14    15    14    1
15    16    14    ar
16    17    16    1
17    18    16    ar
18    19    11    ar
19    19    18    ar
20    20    19    1
21    21    1     ar
22    21    7     ar
23    21    20    1
24    22    6     1
25    23    22    1
26    24    22    1
27    25    22    1
28    26    10    2
29    27    20    1
30    28    27    1
31    29    27    1
32    30    29    1
33    31    29    1
34    32    27    1
35    32    29    1
36    33    32    1
37    34    32    1
@<TRIPOS>SUBSTRUCTURE
1   LIG    1    
 
########## Name        : 1VRT.lig
########## Description : AM1BCC_CHARGES =  -0.0002 ORIGINAL_CHARGES =  -0.0000

@<TRIPOS>MOLECULE
1VRT.lig
34    37    1     0     0    
SMALL
USER_CHARGES
@<TRIPOS>ATOM
1     N1       4.0540  -36.9310   22.2210 N.ar    1  LIG  -0.6650  -0.6200 
2     C1       4.9660  -36.2380   22.9390 C.ar    1  LIG   0.3947   0.1600 
3     H1       6.0082  -36.2811   22.6707 H       1  LIG   0.0281   0.1500 
4     C2       4.6240  -35.4500   24.0360 C.ar    1  LIG  -0.2334  -0.1500 
5     H2       5.3884  -34.9151   24.5740 H       1  LIG   0.1480   0.1500 
6     C3       3.3050  -35.3690   24.4150 C.ar    1  LIG  -0.0698  -0.1435 
7     C4       2.3460  -36.0770   23.6860 C.ar    1  LIG  -0.0398   0.1170 
8     N2       0.9890  -36.0280   24.1030 N.am    1  LIG  -0.4596  -0.5470 
9     H3       0.7643  -35.9928   25.0860 H       1  LIG   0.3311   0.3700 
10    C5      -0.1450  -36.0180   23.4080 C.2     1  LIG   0.7361   0.5438 
11    C6      -0.1190  -36.0770   21.8860 C.ar    1  LIG  -0.2550   0.0862 
12    C7      -1.1230  -35.3990   21.1890 C.ar    1  LIG  -0.0321  -0.1500 
13    H4      -1.7552  -34.6955   21.7041 H       1  LIG   0.1623   0.1500 
14    C8      -1.2960  -35.6300   19.8690 C.ar    1  LIG  -0.2723  -0.1500 
15    H5      -2.0662  -35.1073   19.3273 H       1  LIG   0.1522   0.1500 
16    C9      -0.4670  -36.5450   19.2400 C.ar    1  LIG   0.4373   0.1600 
17    H6      -0.5947  -36.7554   18.1915 H       1  LIG   0.0280   0.1500 
18    N3       0.5220  -37.2120   19.8740 N.ar    1  LIG  -0.6893  -0.6200 
19    C10      0.7040  -36.9790   21.1800 C.ar    1  LIG   0.6480   0.4100 
20    N4       1.7670  -37.6730   21.8260 N.pl3   1  LIG  -0.6924  -0.3690 
21    C11      2.7540  -36.8570   22.5840 C.ar    1  LIG   0.5805   0.4100 
22    C12      2.9040  -34.5090   25.6010 C.3     1  LIG  -0.0620   0.1435 
23    H7       2.2235  -33.7630   25.2820 H       1  LIG   0.0570   0.0000 
24    H8       2.4436  -35.1154   26.3371 H       1  LIG   0.0495   0.0000 
25    H9       3.7654  -34.0491   26.0108 H       1  LIG   0.0519   0.0000 
26    O1      -1.2400  -35.9060   23.9770 O.2     1  LIG  -0.6361  -0.5700 
27    C13      2.3440  -38.7570   21.0360 C.3     1  LIG   0.1354   0.0690 
28    H10      3.1238  -38.3754   20.4296 H       1  LIG   0.0981   0.1000 
29    C14      2.9380  -39.8900   21.8010 C.3     1  LIG  -0.1181  -0.2000 
30    H11      3.8890  -40.1268   21.3997 H       1  LIG   0.0732   0.1000 
31    H12      3.0430  -39.6129   22.8177 H       1  LIG   0.0789   0.1000 
32    C15      1.6390  -40.0610   21.0880 C.3     1  LIG  -0.1196  -0.2000 
33    H13      0.6832  -39.9283   21.5242 H       1  LIG   0.0807   0.1000 
34    H14      1.5292  -40.4423   20.1061 H       1  LIG   0.0733   0.1000 
@<TRIPOS>BOND
1     2     1     ar
2     3     2     1
3     4     2     ar
4     5     4     1
5     6     4     ar
6     7     6     ar
7     8     7     1
8     9     8     1
9     10    8     1
10    11    10    1
11    12    11    ar
12    13    12    1
13    14    12    ar
14    15    14    1
15    16    14    ar
16    17    16    1
17    18    16    ar
18    19    11    ar
19    19    18    ar
20    20    19    1
21    21    1     ar
22    21    7     ar
23    21    20    1
24    22    6     1
25    23    22    1
26    24    22    1
27    25    22    1
28    26    10    2
29    27    20    1
30    28    27    1
31    29    27    1
32    30    29    1
33    31    29    1
34    32    27    1
35    32    29    1
36    33    32    1
37    34    32    1
@<TRIPOS>SUBSTRUCTURE
1   LIG    1    
 
########## Name        : 1VRT.lig
########## Description : AM1BCC_CHARGES =  -0.0002 ORIGINAL_CHARGES =  -0.0000

@<TRIPOS>MOLECULE
1VRT.lig
34    37    1     0     0    
SMALL
USER_CHARGES
@<TRIPOS>ATOM
1     N1       4.0540  -36.9310   22.2210 N.ar    1  LIG  -0.6650  -0.6200 
2     C1       4.9660  -36.2380   22.9390 C.ar    1  LIG   0.3947   0.1600 
3     H1       6.0082  -36.2811   22.6707 H       1  LIG   0.0281   0.1500 
4     C2       4.6240  -35.4500   24.0360 C.ar    1  LIG  -0.2334  -0.1500 
5     H2       5.3884  -34.9151   24.5740 H       1  LIG   0.1480   0.1500 
6     C3       3.3050  -35.3690   24.4150 C.ar    1  LIG  -0.0698  -0.1435 
7     C4       2.3460  -36.0770   23.6860 C.ar    1  LIG  -0.0398   0.1170 
8     N2       0.9890  -36.0280   24.1030 N.am    1  LIG  -0.4596  -0.5470 
9     H3       0.7643  -35.9928   25.0860 H       1  LIG   0.3311   0.3700 
10    C5      -0.1450  -36.0180   23.4080 C.2     1  LIG   0.7361   0.5438 
11    C6      -0.1190  -36.0770   21.8860 C.ar    1  LIG  -0.2550   0.0862 
12    C7      -1.1230  -35.3990   21.1890 C.ar    1  LIG  -0.0321  -0.1500 
13    H4      -1.7552  -34.6955   21.7041 H       1  LIG   0.1623   0.1500 
14    C8      -1.2960  -35.6300   19.8690 C.ar    1  LIG  -0.2723  -0.1500 
15    H5      -2.0662  -35.1073   19.3273 H       1  LIG   0.1522   0.1500 
16    C9      -0.4670  -36.5450   19.2400 C.ar    1  LIG   0.4373   0.1600 
17    H6      -0.5947  -36.7554   18.1915 H       1  LIG   0.0280   0.1500 
18    N3       0.5220  -37.2120   19.8740 N.ar    1  LIG  -0.6893  -0.6200 
19    C10      0.7040  -36.9790   21.1800 C.ar    1  LIG   0.6480   0.4100 
20    N4       1.7670  -37.6730   21.8260 N.pl3   1  LIG  -0.6924  -0.3690 
21    C11      2.7540  -36.8570   22.5840 C.ar    1  LIG   0.5805   0.4100 
22    C12      2.9040  -34.5090   25.6010 C.3     1  LIG  -0.0620   0.1435 
23    H7       2.2235  -33.7630   25.2820 H       1  LIG   0.0570   0.0000 
24    H8       2.4436  -35.1154   26.3371 H       1  LIG   0.0495   0.0000 
25    H9       3.7654  -34.0491   26.0108 H       1  LIG   0.0519   0.0000 
26    O1      -1.2400  -35.9060   23.9770 O.2     1  LIG  -0.6361  -0.5700 
27    C13      2.3440  -38.7570   21.0360 C.3     1  LIG   0.1354   0.0690 
28    H10      3.1238  -38.3754   20.4296 H       1  LIG   0.0981   0.1000 
29    C14      2.9380  -39.8900   21.8010 C.3     1  LIG  -0.1181  -0.2000 
30    H11      3.8890  -40.1268   21.3997 H       1  LIG   0.0732   0.1000 
31    H12      3.0430  -39.6129   22.8177 H       1  LIG   0.0789   0.1000 
32    C15      1.6390  -40.0610   21.0880 C.3     1  LIG  -0.1196  -0.2000 
33    H13      0.6832  -39.9283   21.5242 H       1  LIG   0.0807   0.1000 
34    H14      1.5292  -40.4423   20.1061 H       1  LIG   0.0733   0.1000 
@<TRIPOS>BOND
1     2     1     ar
2     3     2     1
3     4     2     ar
4     5     4     1
5     6     4     ar
6     7     6     ar
7     8     7     1
8     9     8     1
9     10    8     1
10    11    10    1
11    12    11    ar
12    13    12    1
13    14    12    ar
14    15    14    1
15    16    14    ar
16    17    16    1
17    18    16    ar
18    19    11    ar
19    19    18    ar
20    20    19    1
21    21    1     ar
22    21    7     ar
23    21    20    1
24    22    6     1
25    23    22    1
26    24    22    1
27    25    22    1
28    26    10    2
29    27    20    1
30    28    27    1
31    29    27    1
32    30    29    1
33    31    29    1
34    32    27    1
35    32    29    1
36    33    32    1
37    34    32    1
@<TRIPOS>SUBSTRUCTURE
1   LIG    1    
 
########## Name        : 1VRT.lig
########## Description : AM1BCC_CHARGES =  -0.0002 ORIGINAL_CHARGES =  -0.0000

@<TRIPOS>MOLECULE
1VRT.lig
34    37    1     0     0    
SMALL
USER_CHARGES
@<TRIPOS>ATOM
1     N1       4.0540  -36.9310   22.2210 N.ar    1  LIG  -0.6650  -0.6200 
2     C1       4.9660  -36.2380   22.9390 C.ar    1  LIG   0.3947   0.1600 
3     H1       6.0082  -36.2811   22.6707 H       1  LIG   0.0281   0.1500 
4     C2       4.6240  -35.4500   24.0360 C.ar    1  LIG  -0.2334  -0.1500 
5     H2       5.3884  -34.9151   24.5740 H       1  LIG   0.1480   0.1500 
6     C3       3.3050  -35.3690   24.4150 C.ar    1  LIG  -0.0698  -0.1435 
7     C4       2.3460  -36.0770   23.6860 C.ar    1  LIG  -0.0398   0.1170 
8     N2       0.9890  -36.0280   24.1030 N.am    1  LIG  -0.4596  -0.5470 
9     H3       0.7643  -35.9928   25.0860 H       1  LIG   0.3311   0.3700 
10    C5      -0.1450  -36.0180   23.4080 C.2     1  LIG   0.7361   0.5438 
11    C6      -0.1190  -36.0770   21.8860 C.ar    1  LIG  -0.2550   0.0862 
12    C7      -1.1230  -35.3990   21.1890 C.ar    1  LIG  -0.0321  -0.1500 
13    H4      -1.7552  -34.6955   21.7041 H       1  LIG   0.1623   0.1500 
14    C8      -1.2960  -35.6300   19.8690 C.ar    1  LIG  -0.2723  -0.1500 
15    H5      -2.0662  -35.1073   19.3273 H       1  LIG   0.1522   0.1500 
16    C9      -0.4670  -36.5450   19.2400 C.ar    1  LIG   0.4373   0.1600 
17    H6      -0.5947  -36.7554   18.1915 H       1  LIG   0.0280   0.1500 
18    N3       0.5220  -37.2120   19.8740 N.ar    1  LIG  -0.6893  -0.6200 
19    C10      0.7040  -36.9790   21.1800 C.ar    1  LIG   0.6480   0.4100 
20    N4       1.7670  -37.6730   21.8260 N.pl3   1  LIG  -0.6924  -0.3690 
21    C11      2.7540  -36.8570   22.5840 C.ar    1  LIG   0.5805   0.4100 
22    C12      2.9040  -34.5090   25.6010 C.3     1  LIG  -0.0620   0.1435 
23    H7       2.2235  -33.7630   25.2820 H       1  LIG   0.0570   0.0000 
24    H8       2.4436  -35.1154   26.3371 H       1  LIG   0.0495   0.0000 
25    H9       3.7654  -34.0491   26.0108 H       1  LIG   0.0519   0.0000 
26    O1      -1.2400  -35.9060   23.9770 O.2     1  LIG  -0.6361  -0.5700 
27    C13      2.3440  -38.7570   21.0360 C.3     1  LIG   0.1354   0.0690 
28    H10      3.1238  -38.3754   20.4296 H       1  LIG   0.0981   0.1000 
29    C14      2.9380  -39.8900   21.8010 C.3     1  LIG  -0.1181  -0.2000 
30    H11      3.8890  -40.1268   21.3997 H       1  LIG   0.0732   0.1000 
31    H12      3.0430  -39.6129   22.8177 H       1  LIG   0.0789   0.1000 
32    C15      1.6390  -40.0610   21.0880 C.3     1  LIG  -0.1196  -0.2000 
33    H13      0.6832  -39.9283   21.5242 H       1  LIG   0.0807   0.1000 
34    H14      1.5292  -40.4423   20.1061 H       1  LIG   0.0733   0.1000 
@<TRIPOS>BOND
1     2     1     ar
2     3     2     1
3     4     2     ar
4     5     4     1
5     6     4     ar
6     7     6     ar
7     8     7     1
8     9     8     1
9     10    8     1
10    11    10    1
11    12    11    ar
12    13    12    1
13    14    12    ar
14    15    14    1
15    16    14    ar
16    17    16    1
17    18    16    ar
18    19    11    ar
19    19    18    ar
20    20    19    1
21    21    1     ar
22    21    7     ar
23    21    20    1
24    22    6     1
25    23    22    1
26    24    22    1
27    25    22    1
28    26    10    2
29    27    20    1
30    28    27    1
31    29    27    1
32    30    29    1
33    31    29    1
34    32    27    1
35    32    29    1
36    33    32    1
37    34    32    1
@<TRIPOS>SUBSTRUCTURE
1   LIG    1    
 
########## Name        : 1VRT.lig
########## Description : AM1BCC_CHARGES =  -0.0002 ORIGINAL_CHARGES =  -0.0000

@<TRIPOS>MOLECULE
1VRT.lig
34    37    1     0     0    
SMALL
USER_CHARGES
@<TRIPOS>ATOM
1     N1       4.0540  -36.9310   22.2210 N.ar    1  LIG  -0.6650  -0.6200 
2     C1       4.9660  -36.2380   22.9390 C.ar    1  LIG   0.3947   0.1600 
3     H1       6.0082  -36.2811   22.6707 H       1  LIG   0.0281   0.1500 
4     C2       4.6240  -35.4500   24.0360 C.ar    1  LIG  -0.2334  -0.1500 
5     H2       5.3884  -34.9151   24.5740 H       1  LIG   0.1480   0.1500 
6     C3       3.3050  -35.3690   24.4150 C.ar    1  LIG  -0.0698  -0.1435 
7     C4       2.3460  -36.0770   23.6860 C.ar    1  LIG  -0.0398   0.1170 
8     N2       0.9890  -36.0280   24.1030 N.am    1  LIG  -0.4596  -0.5470 
9     H3       0.7643  -35.9928   25.0860 H       1  LIG   0.3311   0.3700 
10    C5      -0.1450  -36.0180   23.4080 C.2     1  LIG   0.7361   0.5438 
11    C6      -0.1190  -36.0770   21.8860 C.ar    1  LIG  -0.2550   0.0862 
12    C7      -1.1230  -35.3990   21.1890 C.ar    1  LIG  -0.0321  -0.1500 
13    H4      -1.7552  -34.6955   21.7041 H       1  LIG   0.1623   0.1500 
14    C8      -1.2960  -35.6300   19.8690 C.ar    1  LIG  -0.2723  -0.1500 
15    H5      -2.0662  -35.1073   19.3273 H       1  LIG   0.1522   0.1500 
16    C9      -0.4670  -36.5450   19.2400 C.ar    1  LIG   0.4373   0.1600 
17    H6      -0.5947  -36.7554   18.1915 H       1  LIG   0.0280   0.1500 
18    N3       0.5220  -37.2120   19.8740 N.ar    1  LIG  -0.6893  -0.6200 
19    C10      0.7040  -36.9790   21.1800 C.ar    1  LIG   0.6480   0.4100 
20    N4       1.7670  -37.6730   21.8260 N.pl3   1  LIG  -0.6924  -0.3690 
21    C11      2.7540  -36.8570   22.5840 C.ar    1  LIG   0.5805   0.4100 
22    C12      2.9040  -34.5090   25.6010 C.3     1  LIG  -0.0620   0.1435 
23    H7       2.2235  -33.7630   25.2820 H       1  LIG   0.0570   0.0000 
24    H8       2.4436  -35.1154   26.3371 H       1  LIG   0.0495   0.0000 
25    H9       3.7654  -34.0491   26.0108 H       1  LIG   0.0519   0.0000 
26    O1      -1.2400  -35.9060   23.9770 O.2     1  LIG  -0.6361  -0.5700 
27    C13      2.3440  -38.7570   21.0360 C.3     1  LIG   0.1354   0.0690 
28    H10      3.1238  -38.3754   20.4296 H       1  LIG   0.0981   0.1000 
29    C14      2.9380  -39.8900   21.8010 C.3     1  LIG  -0.1181  -0.2000 
30    H11      3.8890  -40.1268   21.3997 H       1  LIG   0.0732   0.1000 
31    H12      3.0430  -39.6129   22.8177 H       1  LIG   0.0789   0.1000 
32    C15      1.6390  -40.0610   21.0880 C.3     1  LIG  -0.1196  -0.2000 
33    H13      0.6832  -39.9283   21.5242 H       1  LIG   0.0807   0.1000 
34    H14      1.5292  -40.4423   20.1061 H       1  LIG   0.0733   0.1000 
@<TRIPOS>BOND
1     2     1     ar
2     3     2     1
3     4     2     ar
4     5     4     1
5     6     4     ar
6     7     6     ar
7     8     7     1
8     9     8     1
9     10    8     1
10    11    10    1
11    12    11    ar
12    13    12    1
13    14    12    ar
14    15    14    1
15    16    14    ar
16    17    16    1
17    18    16    ar
18    19    11    ar
19    19    18    ar
20    20    19    1
21    21    1     ar
22    21    7     ar
23    21    20    1
24    22    6     1
25    23    22    1
26    24    22    1
27    25    22    1
28    26    10    2
29    27    20    1
30    28    27    1
31    29    27    1
32    30    29    1
33    31    29    1
34    32    27    1
35    32    29    1
36    33    32    1
37    34    32    1
@<TRIPOS>SUBSTRUCTURE
1   LIG    1    
 
########## Name        : 1VRT.lig
########## Description : AM1BCC_CHARGES =  -0.0002 ORIGINAL_CHARGES =  -0.0000

@<TRIPOS>MOLECULE
1VRT.lig
34    37    1     0     0    
SMALL
USER_CHARGES
@<TRIPOS>ATOM
1     N1       4.0540  -36.9310   22.2210 N.ar    1  LIG  -0.6650  -0.6200 
2     C1       4.9660  -36.2380   22.9390 C.ar    1  LIG   0.3947   0.1600 
3     H1       6.0082  -36.2811   22.6707 H       1  LIG   0.0281   0.1500 
4     C2       4.6240  -35.4500   24.0360 C.ar    1  LIG  -0.2334  -0.1500 
5     H2       5.3884  -34.9151   24.5740 H       1  LIG   0.1480   0.1500 
6     C3       3.3050  -35.3690   24.4150 C.ar    1  LIG  -0.0698  -0.1435 
7     C4       2.3460  -36.0770   23.6860 C.ar    1  LIG  -0.0398   0.1170 
8     N2       0.9890  -36.0280   24.1030 N.am    1  LIG  -0.4596  -0.5470 
9     H3       0.7643  -35.9928   25.0860 H       1  LIG   0.3311   0.3700 
10    C5      -0.1450  -36.0180   23.4080 C.2     1  LIG   0.7361   0.5438 
11    C6      -0.1190  -36.0770   21.8860 C.ar    1  LIG  -0.2550   0.0862 
12    C7      -1.1230  -35.3990   21.1890 C.ar    1  LIG  -0.0321  -0.1500 
13    H4      -1.7552  -34.6955   21.7041 H       1  LIG   0.1623   0.1500 
14    C8      -1.2960  -35.6300   19.8690 C.ar    1  LIG  -0.2723  -0.1500 
15    H5      -2.0662  -35.1073   19.3273 H       1  LIG   0.1522   0.1500 
16    C9      -0.4670  -36.5450   19.2400 C.ar    1  LIG   0.4373   0.1600 
17    H6      -0.5947  -36.7554   18.1915 H       1  LIG   0.0280   0.1500 
18    N3       0.5220  -37.2120   19.8740 N.ar    1  LIG  -0.6893  -0.6200 
19    C10      0.7040  -36.9790   21.1800 C.ar    1  LIG   0.6480   0.4100 
20    N4       1.7670  -37.6730   21.8260 N.pl3   1  LIG  -0.6924  -0.3690 
21    C11      2.7540  -36.8570   22.5840 C.ar    1  LIG   0.5805   0.4100 
22    C12      2.9040  -34.5090   25.6010 C.3     1  LIG  -0.0620   0.1435 
23    H7       2.2235  -33.7630   25.2820 H       1  LIG   0.0570   0.0000 
24    H8       2.4436  -35.1154   26.3371 H       1  LIG   0.0495   0.0000 
25    H9       3.7654  -34.0491   26.0108 H       1  LIG   0.0519   0.0000 
26    O1      -1.2400  -35.9060   23.9770 O.2     1  LIG  -0.6361  -0.5700 
27    C13      2.3440  -38.7570   21.0360 C.3     1  LIG   0.1354   0.0690 
28    H10      3.1238  -38.3754   20.4296 H       1  LIG   0.0981   0.1000 
29    C14      2.9380  -39.8900   21.8010 C.3     1  LIG  -0.1181  -0.2000 
30    H11      3.8890  -40.1268   21.3997 H       1  LIG   0.0732   0.1000 
31    H12      3.0430  -39.6129   22.8177 H       1  LIG   0.0789   0.1000 
32    C15      1.6390  -40.0610   21.0880 C.3     1  LIG  -0.1196  -0.2000 
33    H13      0.6832  -39.9283   21.5242 H       1  LIG   0.0807   0.1000 
34    H14      1.5292  -40.4423   20.1061 H       1  LIG   0.0733   0.1000 
@<TRIPOS>BOND
1     2     1     ar
2     3     2     1
3     4     2     ar
4     5     4     1
5     6     4     ar
6     7     6     ar
7     8     7     1
8     9     8     1
9     10    8     1
10    11    10    1
11    12    11    ar
12    13    12    1
13    14    12    ar
14    15    14    1
15    16    14    ar
16    17    16    1
17    18    16    ar
18    19    11    ar
19    19    18    ar
20    20    19    1
21    21    1     ar
22    21    7     ar
23    21    20    1
24    22    6     1
25    23    22    1
26    24    22    1
27    25    22    1
28    26    10    2
29    27    20    1
30    28    27    1
31    29    27    1
32    30    29    1
33    31    29    1
34    32    27    1
35    32    29    1
36    33    32    1
37    34    32    1
@<TRIPOS>SUBSTRUCTURE
1   LIG    1    
 
########## Name        : 1VRT.lig
########## Description : AM1BCC_CHARGES =  -0.0002 ORIGINAL_CHARGES =  -0.0000

@<TRIPOS>MOLECULE
1VRT.lig
34    37    1     0     0    
SMALL
USER_CHARGES
@<TRIPOS>ATOM
1     N1       4.0540  -36.9310   22.2210 N.ar    1  LIG  -0.6650  -0.6200 
2     C1       4.9660  -36.2380   22.9390 C.ar    1  LIG   0.3947   0.1600 
3     H1       6.0082  -36.2811   22.6707 H       1  LIG   0.0281   0.1500 
4     C2       4.6240  -35.4500   24.0360 C.ar    1  LIG  -0.2334  -0.1500 
5     H2       5.3884  -34.9151   24.5740 H       1  LIG   0.1480   0.1500 
6     C3       3.3050  -35.3690   24.4150 C.ar    1  LIG  -0.0698  -0.1435 
7     C4       2.3460  -36.0770   23.6860 C.ar    1  LIG  -0.0398   0.1170 
8     N2       0.9890  -36.0280   24.1030 N.am    1  LIG  -0.4596  -0.5470 
9     H3       0.7643  -35.9928   25.0860 H       1  LIG   0.3311   0.3700 
10    C5      -0.1450  -36.0180   23.4080 C.2     1  LIG   0.7361   0.5438 
11    C6      -0.1190  -36.0770   21.8860 C.ar    1  LIG  -0.2550   0.0862 
12    C7      -1.1230  -35.3990   21.1890 C.ar    1  LIG  -0.0321  -0.1500 
13    H4      -1.7552  -34.6955   21.7041 H       1  LIG   0.1623   0.1500 
14    C8      -1.2960  -35.6300   19.8690 C.ar    1  LIG  -0.2723  -0.1500 
15    H5      -2.0662  -35.1073   19.3273 H       1  LIG   0.1522   0.1500 
16    C9      -0.4670  -36.5450   19.2400 C.ar    1  LIG   0.4373   0.1600 
17    H6      -0.5947  -36.7554   18.1915 H       1  LIG   0.0280   0.1500 
18    N3       0.5220  -37.2120   19.8740 N.ar    1  LIG  -0.6893  -0.6200 
19    C10      0.7040  -36.9790   21.1800 C.ar    1  LIG   0.6480   0.4100 
20    N4       1.7670  -37.6730   21.8260 N.pl3   1  LIG  -0.6924  -0.3690 
21    C11      2.7540  -36.8570   22.5840 C.ar    1  LIG   0.5805   0.4100 
22    C12      2.9040  -34.5090   25.6010 C.3     1  LIG  -0.0620   0.1435 
23    H7       2.2235  -33.7630   25.2820 H       1  LIG   0.0570   0.0000 
24    H8       2.4436  -35.1154   26.3371 H       1  LIG   0.0495   0.0000 
25    H9       3.7654  -34.0491   26.0108 H       1  LIG   0.0519   0.0000 
26    O1      -1.2400  -35.9060   23.9770 O.2     1  LIG  -0.6361  -0.5700 
27    C13      2.3440  -38.7570   21.0360 C.3     1  LIG   0.1354   0.0690 
28    H10      3.1238  -38.3754   20.4296 H       1  LIG   0.0981   0.1000 
29    C14      2.9380  -39.8900   21.8010 C.3     1  LIG  -0.1181  -0.2000 
30    H11      3.8890  -40.1268   21.3997 H       1  LIG   0.0732   0.1000 
31    H12      3.0430  -39.6129   22.8177 H       1  LIG   0.0789   0.1000 
32    C15      1.6390  -40.0610   21.0880 C.3     1  LIG  -0.1196  -0.2000 
33    H13      0.6832  -39.9283   21.5242 H       1  LIG   0.0807   0.1000 
34    H14      1.5292  -40.4423   20.1061 H       1  LIG   0.0733   0.1000 
@<TRIPOS>BOND
1     2     1     ar
2     3     2     1
3     4     2     ar
4     5     4     1
5     6     4     ar
6     7     6     ar
7     8     7     1
8     9     8     1
9     10    8     1
10    11    10    1
11    12    11    ar
12    13    12    1
13    14    12    ar
14    15    14    1
15    16    14    ar
16    17    16    1
17    18    16    ar
18    19    11    ar
19    19    18    ar
20    20    19    1
21    21    1     ar
22    21    7     ar
23    21    20    1
24    22    6     1
25    23    22    1
26    24    22    1
27    25    22    1
28    26    10    2
29    27    20    1
30    28    27    1
31    29    27    1
32    30    29    1
33    31    29    1
34    32    27    1
35    32    29    1
36    33    32    1
37    34    32    1
@<TRIPOS>SUBSTRUCTURE
1   LIG    1    
 
########## Name        : 1VRT.lig
########## Description : AM1BCC_CHARGES =  -0.0002 ORIGINAL_CHARGES =  -0.0000

@<TRIPOS>MOLECULE
1VRT.lig
34    37    1     0     0    
SMALL
USER_CHARGES
@<TRIPOS>ATOM
1     N1       4.0540  -36.9310   22.2210 N.ar    1  LIG  -0.6650  -0.6200 
2     C1       4.9660  -36.2380   22.9390 C.ar    1  LIG   0.3947   0.1600 
3     H1       6.0082  -36.2811   22.6707 H       1  LIG   0.0281   0.1500 
4     C2       4.6240  -35.4500   24.0360 C.ar    1  LIG  -0.2334  -0.1500 
5     H2       5.3884  -34.9151   24.5740 H       1  LIG   0.1480   0.1500 
6     C3       3.3050  -35.3690   24.4150 C.ar    1  LIG  -0.0698  -0.1435 
7     C4       2.3460  -36.0770   23.6860 C.ar    1  LIG  -0.0398   0.1170 
8     N2       0.9890  -36.0280   24.1030 N.am    1  LIG  -0.4596  -0.5470 
9     H3       0.7643  -35.9928   25.0860 H       1  LIG   0.3311   0.3700 
10    C5      -0.1450  -36.0180   23.4080 C.2     1  LIG   0.7361   0.5438 
11    C6      -0.1190  -36.0770   21.8860 C.ar    1  LIG  -0.2550   0.0862 
12    C7      -1.1230  -35.3990   21.1890 C.ar    1  LIG  -0.0321  -0.1500 
13    H4      -1.7552  -34.6955   21.7041 H       1  LIG   0.1623   0.1500 
14    C8      -1.2960  -35.6300   19.8690 C.ar    1  LIG  -0.2723  -0.1500 
15    H5      -2.0662  -35.1073   19.3273 H       1  LIG   0.1522   0.1500 
16    C9      -0.4670  -36.5450   19.2400 C.ar    1  LIG   0.4373   0.1600 
17    H6      -0.5947  -36.7554   18.1915 H       1  LIG   0.0280   0.1500 
18    N3       0.5220  -37.2120   19.8740 N.ar    1  LIG  -0.6893  -0.6200 
19    C10      0.7040  -36.9790   21.1800 C.ar    1  LIG   0.6480   0.4100 
20    N4       1.7670  -37.6730   21.8260 N.pl3   1  LIG  -0.6924  -0.3690 
21    C11      2.7540  -36.8570   22.5840 C.ar    1  LIG   0.5805   0.4100 
22    C12      2.9040  -34.5090   25.6010 C.3     1  LIG  -0.0620   0.1435 
23    H7       2.2235  -33.7630   25.2820 H       1  LIG   0.0570   0.0000 
24    H8       2.4436  -35.1154   26.3371 H       1  LIG   0.0495   0.0000 
25    H9       3.7654  -34.0491   26.0108 H       1  LIG   0.0519   0.0000 
26    O1      -1.2400  -35.9060   23.9770 O.2     1  LIG  -0.6361  -0.5700 
27    C13      2.3440  -38.7570   21.0360 C.3     1  LIG   0.1354   0.0690 
28    H10      3.1238  -38.3754   20.4296 H       1  LIG   0.0981   0.1000 
29    C14      2.9380  -39.8900   21.8010 C.3     1  LIG  -0.1181  -0.2000 
30    H11      3.8890  -40.1268   21.3997 H       1  LIG   0.0732   0.1000 
31    H12      3.0430  -39.6129   22.8177 H       1  LIG   0.0789   0.1000 
32    C15      1.6390  -40.0610   21.0880 C.3     1  LIG  -0.1196  -0.2000 
33    H13      0.6832  -39.9283   21.5242 H       1  LIG   0.0807   0.1000 
34    H14      1.5292  -40.4423   20.1061 H       1  LIG   0.0733   0.1000 
@<TRIPOS>BOND
1     2     1     ar
2     3     2     1
3     4     2     ar
4     5     4     1
5     6     4     ar
6     7     6     ar
7     8     7     1
8     9     8     1
9     10    8     1
10    11    10    1
11    12    11    ar
12    13    12    1
13    14    12    ar
14    15    14    1
15    16    14    ar
16    17    16    1
17    18    16    ar
18    19    11    ar
19    19    18    ar
20    20    19    1
21    21    1     ar
22    21    7     ar
23    21    20    1
24    22    6     1
25    23    22    1
26    24    22    1
27    25    22    1
28    26    10    2
29    27    20    1
30    28    27    1
31    29    27    1
32    30    29    1
33    31    29    1
34    32    27    1
35    32    29    1
36    33    32    1
37    34    32    1
@<TRIPOS>SUBSTRUCTURE
1   LIG    1    
 
########## Name        : 1VRT.lig
########## Description : AM1BCC_CHARGES =  -0.0002 ORIGINAL_CHARGES =  -0.0000

@<TRIPOS>MOLECULE
1VRT.lig
34    37    1     0     0    
SMALL
USER_CHARGES
@<TRIPOS>ATOM
1     N1       4.0540  -36.9310   22.2210 N.ar    1  LIG  -0.6650  -0.6200 
2     C1       4.9660  -36.2380   22.9390 C.ar    1  LIG   0.3947   0.1600 
3     H1       6.0082  -36.2811   22.6707 H       1  LIG   0.0281   0.1500 
4     C2       4.6240  -35.4500   24.0360 C.ar    1  LIG  -0.2334  -0.1500 
5     H2       5.3884  -34.9151   24.5740 H       1  LIG   0.1480   0.1500 
6     C3       3.3050  -35.3690   24.4150 C.ar    1  LIG  -0.0698  -0.1435 
7     C4       2.3460  -36.0770   23.6860 C.ar    1  LIG  -0.0398   0.1170 
8     N2       0.9890  -36.0280   24.1030 N.am    1  LIG  -0.4596  -0.5470 
9     H3       0.7643  -35.9928   25.0860 H       1  LIG   0.3311   0.3700 
10    C5      -0.1450  -36.0180   23.4080 C.2     1  LIG   0.7361   0.5438 
11    C6      -0.1190  -36.0770   21.8860 C.ar    1  LIG  -0.2550   0.0862 
12    C7      -1.1230  -35.3990   21.1890 C.ar    1  LIG  -0.0321  -0.1500 
13    H4      -1.7552  -34.6955   21.7041 H       1  LIG   0.1623   0.1500 
14    C8      -1.2960  -35.6300   19.8690 C.ar    1  LIG  -0.2723  -0.1500 
15    H5      -2.0662  -35.1073   19.3273 H       1  LIG   0.1522   0.1500 
16    C9      -0.4670  -36.5450   19.2400 C.ar    1  LIG   0.4373   0.1600 
17    H6      -0.5947  -36.7554   18.1915 H       1  LIG   0.0280   0.1500 
18    N3       0.5220  -37.2120   19.8740 N.ar    1  LIG  -0.6893  -0.6200 
19    C10      0.7040  -36.9790   21.1800 C.ar    1  LIG   0.6480   0.4100 
20    N4       1.7670  -37.6730   21.8260 N.pl3   1  LIG  -0.6924  -0.3690 
21    C11      2.7540  -36.8570   22.5840 C.ar    1  LIG   0.5805   0.4100 
22    C12      2.9040  -34.5090   25.6010 C.3     1  LIG  -0.0620   0.1435 
23    H7       2.2235  -33.7630   25.2820 H       1  LIG   0.0570   0.0000 
24    H8       2.4436  -35.1154   26.3371 H       1  LIG   0.0495   0.0000 
25    H9       3.7654  -34.0491   26.0108 H       1  LIG   0.0519   0.0000 
26    O1      -1.2400  -35.9060   23.9770 O.2     1  LIG  -0.6361  -0.5700 
27    C13      2.3440  -38.7570   21.0360 C.3     1  LIG   0.1354   0.0690 
28    H10      3.1238  -38.3754   20.4296 H       1  LIG   0.0981   0.1000 
29    C14      2.9380  -39.8900   21.8010 C.3     1  LIG  -0.1181  -0.2000 
30    H11      3.8890  -40.1268   21.3997 H       1  LIG   0.0732   0.1000 
31    H12      3.0430  -39.6129   22.8177 H       1  LIG   0.0789   0.1000 
32    C15      1.6390  -40.0610   21.0880 C.3     1  LIG  -0.1196  -0.2000 
33    H13      0.6832  -39.9283   21.5242 H       1  LIG   0.0807   0.1000 
34    H14      1.5292  -40.4423   20.1061 H       1  LIG   0.0733   0.1000 
@<TRIPOS>BOND
1     2     1     ar
2     3     2     1
3     4     2     ar
4     5     4     1
5     6     4     ar
6     7     6     ar
7     8     7     1
8     9     8     1
9     10    8     1
10    11    10    1
11    12    11    ar
12    13    12    1
13    14    12    ar
14    15    14    1
15    16    14    ar
16    17    16    1
17    18    16    ar
18    19    11    ar
19    19    18    ar
20    20    19    1
21    21    1     ar
22    21    7     ar
23    21    20    1
24    22    6     1
25    23    22    1
26    24    22    1
27    25    22    1
28    26    10    2
29    27    20    1
30    28    27    1
31    29    27    1
32    30    29    1
33    31    29    1
34    32    27    1
35    32    29    1
36    33    32    1
37    34    32    1
@<TRIPOS>SUBSTRUCTURE
1   LIG    1    
 
########## Name        : 1VRT.lig
########## Description : AM1BCC_CHARGES =  -0.0002 ORIGINAL_CHARGES =  -0.0000

@<TRIPOS>MOLECULE
1VRT.lig
34    37    1     0     0    
SMALL
USER_CHARGES
@<TRIPOS>ATOM
1     N1       4.0540  -36.9310   22.2210 N.ar    1  LIG  -0.6650  -0.6200 
2     C1       4.9660  -36.2380   22.9390 C.ar    1  LIG   0.3947   0.1600 
3     H1       6.0082  -36.2811   22.6707 H       1  LIG   0.0281   0.1500 
4     C2       4.6240  -35.4500   24.0360 C.ar    1  LIG  -0.2334  -0.1500 
5     H2       5.3884  -34.9151   24.5740 H       1  LIG   0.1480   0.1500 
6     C3       3.3050  -35.3690   24.4150 C.ar    1  LIG  -0.0698  -0.1435 
7     C4       2.3460  -36.0770   23.6860 C.ar    1  LIG  -0.0398   0.1170 
8     N2       0.9890  -36.0280   24.1030 N.am    1  LIG  -0.4596  -0.5470 
9     H3       0.7643  -35.9928   25.0860 H       1  LIG   0.3311   0.3700 
10    C5      -0.1450  -36.0180   23.4080 C.2     1  LIG   0.7361   0.5438 
11    C6      -0.1190  -36.0770   21.8860 C.ar    1  LIG  -0.2550   0.0862 
12    C7      -1.1230  -35.3990   21.1890 C.ar    1  LIG  -0.0321  -0.1500 
13    H4      -1.7552  -34.6955   21.7041 H       1  LIG   0.1623   0.1500 
14    C8      -1.2960  -35.6300   19.8690 C.ar    1  LIG  -0.2723  -0.1500 
15    H5      -2.0662  -35.1073   19.3273 H       1  LIG   0.1522   0.1500 
16    C9      -0.4670  -36.5450   19.2400 C.ar    1  LIG   0.4373   0.1600 
17    H6      -0.5947  -36.7554   18.1915 H       1  LIG   0.0280   0.1500 
18    N3       0.5220  -37.2120   19.8740 N.ar    1  LIG  -0.6893  -0.6200 
19    C10      0.7040  -36.9790   21.1800 C.ar    1  LIG   0.6480   0.4100 
20    N4       1.7670  -37.6730   21.8260 N.pl3   1  LIG  -0.6924  -0.3690 
21    C11      2.7540  -36.8570   22.5840 C.ar    1  LIG   0.5805   0.4100 
22    C12      2.9040  -34.5090   25.6010 C.3     1  LIG  -0.0620   0.1435 
23    H7       2.2235  -33.7630   25.2820 H       1  LIG   0.0570   0.0000 
24    H8       2.4436  -35.1154   26.3371 H       1  LIG   0.0495   0.0000 
25    H9       3.7654  -34.0491   26.0108 H       1  LIG   0.0519   0.0000 
26    O1      -1.2400  -35.9060   23.9770 O.2     1  LIG  -0.6361  -0.5700 
27    C13      2.3440  -38.7570   21.0360 C.3     1  LIG   0.1354   0.0690 
28    H10      3.1238  -38.3754   20.4296 H       1  LIG   0.0981   0.1000 
29    C14      2.9380  -39.8900   21.8010 C.3     1  LIG  -0.1181  -0.2000 
30    H11      3.8890  -40.1268   21.3997 H       1  LIG   0.0732   0.1000 
31    H12      3.0430  -39.6129   22.8177 H       1  LIG   0.0789   0.1000 
32    C15      1.6390  -40.0610   21.0880 C.3     1  LIG  -0.1196  -0.2000 
33    H13      0.6832  -39.9283   21.5242 H       1  LIG   0.0807   0.1000 
34    H14      1.5292  -40.4423   20.1061 H       1  LIG   0.0733   0.1000 
@<TRIPOS>BOND
1     2     1     ar
2     3     2     1
3     4     2     ar
4     5     4     1
5     6     4     ar
6     7     6     ar
7     8     7     1
8     9     8     1
9     10    8     1
10    11    10    1
11    12    11    ar
12    13    12    1
13    14    12    ar
14    15    14    1
15    16    14    ar
16    17    16    1
17    18    16    ar
18    19    11    ar
19    19    18    ar
20    20    19    1
21    21    1     ar
22    21    7     ar
23    21    20    1
24    22    6     1
25    23    22    1
26    24    22    1
27    25    22    1
28    26    10    2
29    27    20    1
30    28    27    1
31    29    27    1
32    30    29    1
33    31    29    1
34    32    27    1
35    32    29    1
36    33    32    1
37    34    32    1
@<TRIPOS>SUBSTRUCTURE
1   LIG    1    
 
########## Name        : 1VRT.lig
########## Description : AM1BCC_CHARGES =  -0.0002 ORIGINAL_CHARGES =  -0.0000

@<TRIPOS>MOLECULE
1VRT.lig
34    37    1     0     0    
SMALL
USER_CHARGES
@<TRIPOS>ATOM
1     N1       4.0540  -36.9310   22.2210 N.ar    1  LIG  -0.6650  -0.6200 
2     C1       4.9660  -36.2380   22.9390 C.ar    1  LIG   0.3947   0.1600 
3     H1       6.0082  -36.2811   22.6707 H       1  LIG   0.0281   0.1500 
4     C2       4.6240  -35.4500   24.0360 C.ar    1  LIG  -0.2334  -0.1500 
5     H2       5.3884  -34.9151   24.5740 H       1  LIG   0.1480   0.1500 
6     C3       3.3050  -35.3690   24.4150 C.ar    1  LIG  -0.0698  -0.1435 
7     C4       2.3460  -36.0770   23.6860 C.ar    1  LIG  -0.0398   0.1170 
8     N2       0.9890  -36.0280   24.1030 N.am    1  LIG  -0.4596  -0.5470 
9     H3       0.7643  -35.9928   25.0860 H       1  LIG   0.3311   0.3700 
10    C5      -0.1450  -36.0180   23.4080 C.2     1  LIG   0.7361   0.5438 
11    C6      -0.1190  -36.0770   21.8860 C.ar    1  LIG  -0.2550   0.0862 
12    C7      -1.1230  -35.3990   21.1890 C.ar    1  LIG  -0.0321  -0.1500 
13    H4      -1.7552  -34.6955   21.7041 H       1  LIG   0.1623   0.1500 
14    C8      -1.2960  -35.6300   19.8690 C.ar    1  LIG  -0.2723  -0.1500 
15    H5      -2.0662  -35.1073   19.3273 H       1  LIG   0.1522   0.1500 
16    C9      -0.4670  -36.5450   19.2400 C.ar    1  LIG   0.4373   0.1600 
17    H6      -0.5947  -36.7554   18.1915 H       1  LIG   0.0280   0.1500 
18    N3       0.5220  -37.2120   19.8740 N.ar    1  LIG  -0.6893  -0.6200 
19    C10      0.7040  -36.9790   21.1800 C.ar    1  LIG   0.6480   0.4100 
20    N4       1.7670  -37.6730   21.8260 N.pl3   1  LIG  -0.6924  -0.3690 
21    C11      2.7540  -36.8570   22.5840 C.ar    1  LIG   0.5805   0.4100 
22    C12      2.9040  -34.5090   25.6010 C.3     1  LIG  -0.0620   0.1435 
23    H7       2.2235  -33.7630   25.2820 H       1  LIG   0.0570   0.0000 
24    H8       2.4436  -35.1154   26.3371 H       1  LIG   0.0495   0.0000 
25    H9       3.7654  -34.0491   26.0108 H       1  LIG   0.0519   0.0000 
26    O1      -1.2400  -35.9060   23.9770 O.2     1  LIG  -0.6361  -0.5700 
27    C13      2.3440  -38.7570   21.0360 C.3     1  LIG   0.1354   0.0690 
28    H10      3.1238  -38.3754   20.4296 H       1  LIG   0.0981   0.1000 
29    C14      2.9380  -39.8900   21.8010 C.3     1  LIG  -0.1181  -0.2000 
30    H11      3.8890  -40.1268   21.3997 H       1  LIG   0.0732   0.1000 
31    H12      3.0430  -39.6129   22.8177 H       1  LIG   0.0789   0.1000 
32    C15      1.6390  -40.0610   21.0880 C.3     1  LIG  -0.1196  -0.2000 
33    H13      0.6832  -39.9283   21.5242 H       1  LIG   0.0807   0.1000 
34    H14      1.5292  -40.4423   20.1061 H       1  LIG   0.0733   0.1000 
@<TRIPOS>BOND
1     2     1     ar
2     3     2     1
3     4     2     ar
4     5     4     1
5     6     4     ar
6     7     6     ar
7     8     7     1
8     9     8     1
9     10    8     1
10    11    10    1
11    12    11    ar
12    13    12    1
13    14    12    ar
14    15    14    1
15    16    14    ar
16    17    16    1
17    18    16    ar
18    19    11    ar
19    19    18    ar
20    20    19    1
21    21    1     ar
22    21    7     ar
23    21    20    1
24    22    6     1
25    23    22    1
26    24    22    1
27    25    22    1
28    26    10    2
29    27    20    1
30    28    27    1
31    29    27    1
32    30    29    1
33    31    29    1
34    32    27    1
35    32    29    1
36    33    32    1
37    34    32    1
@<TRIPOS>SUBSTRUCTURE
1   LIG    1    
 
########## Name        : 1VRT.lig
########## Description : AM1BCC_CHARGES =  -0.0002 ORIGINAL_CHARGES =  -0.0000

@<TRIPOS>MOLECULE
1VRT.lig
34    37    1     0     0    
SMALL
USER_CHARGES
@<TRIPOS>ATOM
1     N1       4.0540  -36.9310   22.2210 N.ar    1  LIG  -0.6650  -0.6200 
2     C1       4.9660  -36.2380   22.9390 C.ar    1  LIG   0.3947   0.1600 
3     H1       6.0082  -36.2811   22.6707 H       1  LIG   0.0281   0.1500 
4     C2       4.6240  -35.4500   24.0360 C.ar    1  LIG  -0.2334  -0.1500 
5     H2       5.3884  -34.9151   24.5740 H       1  LIG   0.1480   0.1500 
6     C3       3.3050  -35.3690   24.4150 C.ar    1  LIG  -0.0698  -0.1435 
7     C4       2.3460  -36.0770   23.6860 C.ar    1  LIG  -0.0398   0.1170 
8     N2       0.9890  -36.0280   24.1030 N.am    1  LIG  -0.4596  -0.5470 
9     H3       0.7643  -35.9928   25.0860 H       1  LIG   0.3311   0.3700 
10    C5      -0.1450  -36.0180   23.4080 C.2     1  LIG   0.7361   0.5438 
11    C6      -0.1190  -36.0770   21.8860 C.ar    1  LIG  -0.2550   0.0862 
12    C7      -1.1230  -35.3990   21.1890 C.ar    1  LIG  -0.0321  -0.1500 
13    H4      -1.7552  -34.6955   21.7041 H       1  LIG   0.1623   0.1500 
14    C8      -1.2960  -35.6300   19.8690 C.ar    1  LIG  -0.2723  -0.1500 
15    H5      -2.0662  -35.1073   19.3273 H       1  LIG   0.1522   0.1500 
16    C9      -0.4670  -36.5450   19.2400 C.ar    1  LIG   0.4373   0.1600 
17    H6      -0.5947  -36.7554   18.1915 H       1  LIG   0.0280   0.1500 
18    N3       0.5220  -37.2120   19.8740 N.ar    1  LIG  -0.6893  -0.6200 
19    C10      0.7040  -36.9790   21.1800 C.ar    1  LIG   0.6480   0.4100 
20    N4       1.7670  -37.6730   21.8260 N.pl3   1  LIG  -0.6924  -0.3690 
21    C11      2.7540  -36.8570   22.5840 C.ar    1  LIG   0.5805   0.4100 
22    C12      2.9040  -34.5090   25.6010 C.3     1  LIG  -0.0620   0.1435 
23    H7       2.2235  -33.7630   25.2820 H       1  LIG   0.0570   0.0000 
24    H8       2.4436  -35.1154   26.3371 H       1  LIG   0.0495   0.0000 
25    H9       3.7654  -34.0491   26.0108 H       1  LIG   0.0519   0.0000 
26    O1      -1.2400  -35.9060   23.9770 O.2     1  LIG  -0.6361  -0.5700 
27    C13      2.3440  -38.7570   21.0360 C.3     1  LIG   0.1354   0.0690 
28    H10      3.1238  -38.3754   20.4296 H       1  LIG   0.0981   0.1000 
29    C14      2.9380  -39.8900   21.8010 C.3     1  LIG  -0.1181  -0.2000 
30    H11      3.8890  -40.1268   21.3997 H       1  LIG   0.0732   0.1000 
31    H12      3.0430  -39.6129   22.8177 H       1  LIG   0.0789   0.1000 
32    C15      1.6390  -40.0610   21.0880 C.3     1  LIG  -0.1196  -0.2000 
33    H13      0.6832  -39.9283   21.5242 H       1  LIG   0.0807   0.1000 
34    H14      1.5292  -40.4423   20.1061 H       1  LIG   0.0733   0.1000 
@<TRIPOS>BOND
1     2     1     ar
2     3     2     1
3     4     2     ar
4     5     4     1
5     6     4     ar
6     7     6     ar
7     8     7     1
8     9     8     1
9     10    8     1
10    11    10    1
11    12    11    ar
12    13    12    1
13    14    12    ar
14    15    14    1
15    16    14    ar
16    17    16    1
17    18    16    ar
18    19    11    ar
19    19    18    ar
20    20    19    1
21    21    1     ar
22    21    7     ar
23    21    20    1
24    22    6     1
25    23    22    1
26    24    22    1
27    25    22    1
28    26    10    2
29    27    20    1
30    28    27    1
31    29    27    1
32    30    29    1
33    31    29    1
34    32    27    1
35    32    29    1
36    33    32    1
37    34    32    1
@<TRIPOS>SUBSTRUCTURE
1   LIG    1    
 
########## Name        : 1VRT.lig
########## Description : AM1BCC_CHARGES =  -0.0002 ORIGINAL_CHARGES =  -0.0000

@<TRIPOS>MOLECULE
1VRT.lig
34    37    1     0     0    
SMALL
USER_CHARGES
@<TRIPOS>ATOM
1     N1       4.0540  -36.9310   22.2210 N.ar    1  LIG  -0.6650  -0.6200 
2     C1       4.9660  -36.2380   22.9390 C.ar    1  LIG   0.3947   0.1600 
3     H1       6.0082  -36.2811   22.6707 H       1  LIG   0.0281   0.1500 
4     C2       4.6240  -35.4500   24.0360 C.ar    1  LIG  -0.2334  -0.1500 
5     H2       5.3884  -34.9151   24.5740 H       1  LIG   0.1480   0.1500 
6     C3       3.3050  -35.3690   24.4150 C.ar    1  LIG  -0.0698  -0.1435 
7     C4       2.3460  -36.0770   23.6860 C.ar    1  LIG  -0.0398   0.1170 
8     N2       0.9890  -36.0280   24.1030 N.am    1  LIG  -0.4596  -0.5470 
9     H3       0.7643  -35.9928   25.0860 H       1  LIG   0.3311   0.3700 
10    C5      -0.1450  -36.0180   23.4080 C.2     1  LIG   0.7361   0.5438 
11    C6      -0.1190  -36.0770   21.8860 C.ar    1  LIG  -0.2550   0.0862 
12    C7      -1.1230  -35.3990   21.1890 C.ar    1  LIG  -0.0321  -0.1500 
13    H4      -1.7552  -34.6955   21.7041 H       1  LIG   0.1623   0.1500 
14    C8      -1.2960  -35.6300   19.8690 C.ar    1  LIG  -0.2723  -0.1500 
15    H5      -2.0662  -35.1073   19.3273 H       1  LIG   0.1522   0.1500 
16    C9      -0.4670  -36.5450   19.2400 C.ar    1  LIG   0.4373   0.1600 
17    H6      -0.5947  -36.7554   18.1915 H       1  LIG   0.0280   0.1500 
18    N3       0.5220  -37.2120   19.8740 N.ar    1  LIG  -0.6893  -0.6200 
19    C10      0.7040  -36.9790   21.1800 C.ar    1  LIG   0.6480   0.4100 
20    N4       1.7670  -37.6730   21.8260 N.pl3   1  LIG  -0.6924  -0.3690 
21    C11      2.7540  -36.8570   22.5840 C.ar    1  LIG   0.5805   0.4100 
22    C12      2.9040  -34.5090   25.6010 C.3     1  LIG  -0.0620   0.1435 
23    H7       2.2235  -33.7630   25.2820 H       1  LIG   0.0570   0.0000 
24    H8       2.4436  -35.1154   26.3371 H       1  LIG   0.0495   0.0000 
25    H9       3.7654  -34.0491   26.0108 H       1  LIG   0.0519   0.0000 
26    O1      -1.2400  -35.9060   23.9770 O.2     1  LIG  -0.6361  -0.5700 
27    C13      2.3440  -38.7570   21.0360 C.3     1  LIG   0.1354   0.0690 
28    H10      3.1238  -38.3754   20.4296 H       1  LIG   0.0981   0.1000 
29    C14      2.9380  -39.8900   21.8010 C.3     1  LIG  -0.1181  -0.2000 
30    H11      3.8890  -40.1268   21.3997 H       1  LIG   0.0732   0.1000 
31    H12      3.0430  -39.6129   22.8177 H       1  LIG   0.0789   0.1000 
32    C15      1.6390  -40.0610   21.0880 C.3     1  LIG  -0.1196  -0.2000 
33    H13      0.6832  -39.9283   21.5242 H       1  LIG   0.0807   0.1000 
34    H14      1.5292  -40.4423   20.1061 H       1  LIG   0.0733   0.1000 
@<TRIPOS>BOND
1     2     1     ar
2     3     2     1
3     4     2     ar
4     5     4     1
5     6     4     ar
6     7     6     ar
7     8     7     1
8     9     8     1
9     10    8     1
10    11    10    1
11    12    11    ar
12    13    12    1
13    14    12    ar
14    15    14    1
15    16    14    ar
16    17    16    1
17    18    16    ar
18    19    11    ar
19    19    18    ar
20    20    19    1
21    21    1     ar
22    21    7     ar
23    21    20    1
24    22    6     1
25    23    22    1
26    24    22    1
27    25    22    1
28    26    10    2
29    27    20    1
30    28    27    1
31    29    27    1
32    30    29    1
33    31    29    1
34    32    27    1
35    32    29    1
36    33    32    1
37    34    32    1
@<TRIPOS>SUBSTRUCTURE
1   LIG    1    
 
########## Name        : 1VRT.lig
########## Description : AM1BCC_CHARGES =  -0.0002 ORIGINAL_CHARGES =  -0.0000

@<TRIPOS>MOLECULE
1VRT.lig
34    37    1     0     0    
SMALL
USER_CHARGES
@<TRIPOS>ATOM
1     N1       4.0540  -36.9310   22.2210 N.ar    1  LIG  -0.6650  -0.6200 
2     C1       4.9660  -36.2380   22.9390 C.ar    1  LIG   0.3947   0.1600 
3     H1       6.0082  -36.2811   22.6707 H       1  LIG   0.0281   0.1500 
4     C2       4.6240  -35.4500   24.0360 C.ar    1  LIG  -0.2334  -0.1500 
5     H2       5.3884  -34.9151   24.5740 H       1  LIG   0.1480   0.1500 
6     C3       3.3050  -35.3690   24.4150 C.ar    1  LIG  -0.0698  -0.1435 
7     C4       2.3460  -36.0770   23.6860 C.ar    1  LIG  -0.0398   0.1170 
8     N2       0.9890  -36.0280   24.1030 N.am    1  LIG  -0.4596  -0.5470 
9     H3       0.7643  -35.9928   25.0860 H       1  LIG   0.3311   0.3700 
10    C5      -0.1450  -36.0180   23.4080 C.2     1  LIG   0.7361   0.5438 
11    C6      -0.1190  -36.0770   21.8860 C.ar    1  LIG  -0.2550   0.0862 
12    C7      -1.1230  -35.3990   21.1890 C.ar    1  LIG  -0.0321  -0.1500 
13    H4      -1.7552  -34.6955   21.7041 H       1  LIG   0.1623   0.1500 
14    C8      -1.2960  -35.6300   19.8690 C.ar    1  LIG  -0.2723  -0.1500 
15    H5      -2.0662  -35.1073   19.3273 H       1  LIG   0.1522   0.1500 
16    C9      -0.4670  -36.5450   19.2400 C.ar    1  LIG   0.4373   0.1600 
17    H6      -0.5947  -36.7554   18.1915 H       1  LIG   0.0280   0.1500 
18    N3       0.5220  -37.2120   19.8740 N.ar    1  LIG  -0.6893  -0.6200 
19    C10      0.7040  -36.9790   21.1800 C.ar    1  LIG   0.6480   0.4100 
20    N4       1.7670  -37.6730   21.8260 N.pl3   1  LIG  -0.6924  -0.3690 
21    C11      2.7540  -36.8570   22.5840 C.ar    1  LIG   0.5805   0.4100 
22    C12      2.9040  -34.5090   25.6010 C.3     1  LIG  -0.0620   0.1435 
23    H7       2.2235  -33.7630   25.2820 H       1  LIG   0.0570   0.0000 
24    H8       2.4436  -35.1154   26.3371 H       1  LIG   0.0495   0.0000 
25    H9       3.7654  -34.0491   26.0108 H       1  LIG   0.0519   0.0000 
26    O1      -1.2400  -35.9060   23.9770 O.2     1  LIG  -0.6361  -0.5700 
27    C13      2.3440  -38.7570   21.0360 C.3     1  LIG   0.1354   0.0690 
28    H10      3.1238  -38.3754   20.4296 H       1  LIG   0.0981   0.1000 
29    C14      2.9380  -39.8900   21.8010 C.3     1  LIG  -0.1181  -0.2000 
30    H11      3.8890  -40.1268   21.3997 H       1  LIG   0.0732   0.1000 
31    H12      3.0430  -39.6129   22.8177 H       1  LIG   0.0789   0.1000 
32    C15      1.6390  -40.0610   21.0880 C.3     1  LIG  -0.1196  -0.2000 
33    H13      0.6832  -39.9283   21.5242 H       1  LIG   0.0807   0.1000 
34    H14      1.5292  -40.4423   20.1061 H       1  LIG   0.0733   0.1000 
@<TRIPOS>BOND
1     2     1     ar
2     3     2     1
3     4     2     ar
4     5     4     1
5     6     4     ar
6     7     6     ar
7     8     7     1
8     9     8     1
9     10    8     1
10    11    10    1
11    12    11    ar
12    13    12    1
13    14    12    ar
14    15    14    1
15    16    14    ar
16    17    16    1
17    18    16    ar
18    19    11    ar
19    19    18    ar
20    20    19    1
21    21    1     ar
22    21    7     ar
23    21    20    1
24    22    6     1
25    23    22    1
26    24    22    1
27    25    22    1
28    26    10    2
29    27    20    1
30    28    27    1
31    29    27    1
32    30    29    1
33    31    29    1
34    32    27    1
35    32    29    1
36    33    32    1
37    34    32    1
@<TRIPOS>SUBSTRUCTURE
1   LIG    1    
 
########## Name        : 1VRT.lig
########## Description : AM1BCC_CHARGES =  -0.0002 ORIGINAL_CHARGES =  -0.0000

@<TRIPOS>MOLECULE
1VRT.lig
34    37    1     0     0    
SMALL
USER_CHARGES
@<TRIPOS>ATOM
1     N1       4.0540  -36.9310   22.2210 N.ar    1  LIG  -0.6650  -0.6200 
2     C1       4.9660  -36.2380   22.9390 C.ar    1  LIG   0.3947   0.1600 
3     H1       6.0082  -36.2811   22.6707 H       1  LIG   0.0281   0.1500 
4     C2       4.6240  -35.4500   24.0360 C.ar    1  LIG  -0.2334  -0.1500 
5     H2       5.3884  -34.9151   24.5740 H       1  LIG   0.1480   0.1500 
6     C3       3.3050  -35.3690   24.4150 C.ar    1  LIG  -0.0698  -0.1435 
7     C4       2.3460  -36.0770   23.6860 C.ar    1  LIG  -0.0398   0.1170 
8     N2       0.9890  -36.0280   24.1030 N.am    1  LIG  -0.4596  -0.5470 
9     H3       0.7643  -35.9928   25.0860 H       1  LIG   0.3311   0.3700 
10    C5      -0.1450  -36.0180   23.4080 C.2     1  LIG   0.7361   0.5438 
11    C6      -0.1190  -36.0770   21.8860 C.ar    1  LIG  -0.2550   0.0862 
12    C7      -1.1230  -35.3990   21.1890 C.ar    1  LIG  -0.0321  -0.1500 
13    H4      -1.7552  -34.6955   21.7041 H       1  LIG   0.1623   0.1500 
14    C8      -1.2960  -35.6300   19.8690 C.ar    1  LIG  -0.2723  -0.1500 
15    H5      -2.0662  -35.1073   19.3273 H       1  LIG   0.1522   0.1500 
16    C9      -0.4670  -36.5450   19.2400 C.ar    1  LIG   0.4373   0.1600 
17    H6      -0.5947  -36.7554   18.1915 H       1  LIG   0.0280   0.1500 
18    N3       0.5220  -37.2120   19.8740 N.ar    1  LIG  -0.6893  -0.6200 
19    C10      0.7040  -36.9790   21.1800 C.ar    1  LIG   0.6480   0.4100 
20    N4       1.7670  -37.6730   21.8260 N.pl3   1  LIG  -0.6924  -0.3690 
21    C11      2.7540  -36.8570   22.5840 C.ar    1  LIG   0.5805   0.4100 
22    C12      2.9040  -34.5090   25.6010 C.3     1  LIG  -0.0620   0.1435 
23    H7       2.2235  -33.7630   25.2820 H       1  LIG   0.0570   0.0000 
24    H8       2.4436  -35.1154   26.3371 H       1  LIG   0.0495   0.0000 
25    H9       3.7654  -34.0491   26.0108 H       1  LIG   0.0519   0.0000 
26    O1      -1.2400  -35.9060   23.9770 O.2     1  LIG  -0.6361  -0.5700 
27    C13      2.3440  -38.7570   21.0360 C.3     1  LIG   0.1354   0.0690 
28    H10      3.1238  -38.3754   20.4296 H       1  LIG   0.0981   0.1000 
29    C14      2.9380  -39.8900   21.8010 C.3     1  LIG  -0.1181  -0.2000 
30    H11      3.8890  -40.1268   21.3997 H       1  LIG   0.0732   0.1000 
31    H12      3.0430  -39.6129   22.8177 H       1  LIG   0.0789   0.1000 
32    C15      1.6390  -40.0610   21.0880 C.3     1  LIG  -0.1196  -0.2000 
33    H13      0.6832  -39.9283   21.5242 H       1  LIG   0.0807   0.1000 
34    H14      1.5292  -40.4423   20.1061 H       1  LIG   0.0733   0.1000 
@<TRIPOS>BOND
1     2     1     ar
2     3     2     1
3     4     2     ar
4     5     4     1
5     6     4     ar
6     7     6     ar
7     8     7     1
8     9     8     1
9     10    8     1
10    11    10    1
11    12    11    ar
12    13    12    1
13    14    12    ar
14    15    14    1
15    16    14    ar
16    17    16    1
17    18    16    ar
18    19    11    ar
19    19    18    ar
20    20    19    1
21    21    1     ar
22    21    7     ar
23    21    20    1
24    22    6     1
25    23    22    1
26    24    22    1
27    25    22    1
28    26    10    2
29    27    20    1
30    28    27    1
31    29    27    1
32    30    29    1
33    31    29    1
34    32    27    1
35    32    29    1
36    33    32    1
37    34    32    1
@<TRIPOS>SUBSTRUCTURE
1   LIG    1    
 
########## Name        : 1VRT.lig
########## Description : AM1BCC_CHARGES =  -0.0002 ORIGINAL_CHARGES =  -0.0000

@<TRIPOS>MOLECULE
1VRT.lig
34    37    1     0     0    
SMALL
USER_CHARGES
@<TRIPOS>ATOM
1     N1       4.0540  -36.9310   22.2210 N.ar    1  LIG  -0.6650  -0.6200 
2     C1       4.9660  -36.2380   22.9390 C.ar    1  LIG   0.3947   0.1600 
3     H1       6.0082  -36.2811   22.6707 H       1  LIG   0.0281   0.1500 
4     C2       4.6240  -35.4500   24.0360 C.ar    1  LIG  -0.2334  -0.1500 
5     H2       5.3884  -34.9151   24.5740 H       1  LIG   0.1480   0.1500 
6     C3       3.3050  -35.3690   24.4150 C.ar    1  LIG  -0.0698  -0.1435 
7     C4       2.3460  -36.0770   23.6860 C.ar    1  LIG  -0.0398   0.1170 
8     N2       0.9890  -36.0280   24.1030 N.am    1  LIG  -0.4596  -0.5470 
9     H3       0.7643  -35.9928   25.0860 H       1  LIG   0.3311   0.3700 
10    C5      -0.1450  -36.0180   23.4080 C.2     1  LIG   0.7361   0.5438 
11    C6      -0.1190  -36.0770   21.8860 C.ar    1  LIG  -0.2550   0.0862 
12    C7      -1.1230  -35.3990   21.1890 C.ar    1  LIG  -0.0321  -0.1500 
13    H4      -1.7552  -34.6955   21.7041 H       1  LIG   0.1623   0.1500 
14    C8      -1.2960  -35.6300   19.8690 C.ar    1  LIG  -0.2723  -0.1500 
15    H5      -2.0662  -35.1073   19.3273 H       1  LIG   0.1522   0.1500 
16    C9      -0.4670  -36.5450   19.2400 C.ar    1  LIG   0.4373   0.1600 
17    H6      -0.5947  -36.7554   18.1915 H       1  LIG   0.0280   0.1500 
18    N3       0.5220  -37.2120   19.8740 N.ar    1  LIG  -0.6893  -0.6200 
19    C10      0.7040  -36.9790   21.1800 C.ar    1  LIG   0.6480   0.4100 
20    N4       1.7670  -37.6730   21.8260 N.pl3   1  LIG  -0.6924  -0.3690 
21    C11      2.7540  -36.8570   22.5840 C.ar    1  LIG   0.5805   0.4100 
22    C12      2.9040  -34.5090   25.6010 C.3     1  LIG  -0.0620   0.1435 
23    H7       2.2235  -33.7630   25.2820 H       1  LIG   0.0570   0.0000 
24    H8       2.4436  -35.1154   26.3371 H       1  LIG   0.0495   0.0000 
25    H9       3.7654  -34.0491   26.0108 H       1  LIG   0.0519   0.0000 
26    O1      -1.2400  -35.9060   23.9770 O.2     1  LIG  -0.6361  -0.5700 
27    C13      2.3440  -38.7570   21.0360 C.3     1  LIG   0.1354   0.0690 
28    H10      3.1238  -38.3754   20.4296 H       1  LIG   0.0981   0.1000 
29    C14      2.9380  -39.8900   21.8010 C.3     1  LIG  -0.1181  -0.2000 
30    H11      3.8890  -40.1268   21.3997 H       1  LIG   0.0732   0.1000 
31    H12      3.0430  -39.6129   22.8177 H       1  LIG   0.0789   0.1000 
32    C15      1.6390  -40.0610   21.0880 C.3     1  LIG  -0.1196  -0.2000 
33    H13      0.6832  -39.9283   21.5242 H       1  LIG   0.0807   0.1000 
34    H14      1.5292  -40.4423   20.1061 H       1  LIG   0.0733   0.1000 
@<TRIPOS>BOND
1     2     1     ar
2     3     2     1
3     4     2     ar
4     5     4     1
5     6     4     ar
6     7     6     ar
7     8     7     1
8     9     8     1
9     10    8     1
10    11    10    1
11    12    11    ar
12    13    12    1
13    14    12    ar
14    15    14    1
15    16    14    ar
16    17    16    1
17    18    16    ar
18    19    11    ar
19    19    18    ar
20    20    19    1
21    21    1     ar
22    21    7     ar
23    21    20    1
24    22    6     1
25    23    22    1
26    24    22    1
27    25    22    1
28    26    10    2
29    27    20    1
30    28    27    1
31    29    27    1
32    30    29    1
33    31    29    1
34    32    27    1
35    32    29    1
36    33    32    1
37    34    32    1
@<TRIPOS>SUBSTRUCTURE
1   LIG    1    
 
########## Name        : 1VRT.lig
########## Description : AM1BCC_CHARGES =  -0.0002 ORIGINAL_CHARGES =  -0.0000

@<TRIPOS>MOLECULE
1VRT.lig
34    37    1     0     0    
SMALL
USER_CHARGES
@<TRIPOS>ATOM
1     N1       4.0540  -36.9310   22.2210 N.ar    1  LIG  -0.6650  -0.6200 
2     C1       4.9660  -36.2380   22.9390 C.ar    1  LIG   0.3947   0.1600 
3     H1       6.0082  -36.2811   22.6707 H       1  LIG   0.0281   0.1500 
4     C2       4.6240  -35.4500   24.0360 C.ar    1  LIG  -0.2334  -0.1500 
5     H2       5.3884  -34.9151   24.5740 H       1  LIG   0.1480   0.1500 
6     C3       3.3050  -35.3690   24.4150 C.ar    1  LIG  -0.0698  -0.1435 
7     C4       2.3460  -36.0770   23.6860 C.ar    1  LIG  -0.0398   0.1170 
8     N2       0.9890  -36.0280   24.1030 N.am    1  LIG  -0.4596  -0.5470 
9     H3       0.7643  -35.9928   25.0860 H       1  LIG   0.3311   0.3700 
10    C5      -0.1450  -36.0180   23.4080 C.2     1  LIG   0.7361   0.5438 
11    C6      -0.1190  -36.0770   21.8860 C.ar    1  LIG  -0.2550   0.0862 
12    C7      -1.1230  -35.3990   21.1890 C.ar    1  LIG  -0.0321  -0.1500 
13    H4      -1.7552  -34.6955   21.7041 H       1  LIG   0.1623   0.1500 
14    C8      -1.2960  -35.6300   19.8690 C.ar    1  LIG  -0.2723  -0.1500 
15    H5      -2.0662  -35.1073   19.3273 H       1  LIG   0.1522   0.1500 
16    C9      -0.4670  -36.5450   19.2400 C.ar    1  LIG   0.4373   0.1600 
17    H6      -0.5947  -36.7554   18.1915 H       1  LIG   0.0280   0.1500 
18    N3       0.5220  -37.2120   19.8740 N.ar    1  LIG  -0.6893  -0.6200 
19    C10      0.7040  -36.9790   21.1800 C.ar    1  LIG   0.6480   0.4100 
20    N4       1.7670  -37.6730   21.8260 N.pl3   1  LIG  -0.6924  -0.3690 
21    C11      2.7540  -36.8570   22.5840 C.ar    1  LIG   0.5805   0.4100 
22    C12      2.9040  -34.5090   25.6010 C.3     1  LIG  -0.0620   0.1435 
23    H7       2.2235  -33.7630   25.2820 H       1  LIG   0.0570   0.0000 
24    H8       2.4436  -35.1154   26.3371 H       1  LIG   0.0495   0.0000 
25    H9       3.7654  -34.0491   26.0108 H       1  LIG   0.0519   0.0000 
26    O1      -1.2400  -35.9060   23.9770 O.2     1  LIG  -0.6361  -0.5700 
27    C13      2.3440  -38.7570   21.0360 C.3     1  LIG   0.1354   0.0690 
28    H10      3.1238  -38.3754   20.4296 H       1  LIG   0.0981   0.1000 
29    C14      2.9380  -39.8900   21.8010 C.3     1  LIG  -0.1181  -0.2000 
30    H11      3.8890  -40.1268   21.3997 H       1  LIG   0.0732   0.1000 
31    H12      3.0430  -39.6129   22.8177 H       1  LIG   0.0789   0.1000 
32    C15      1.6390  -40.0610   21.0880 C.3     1  LIG  -0.1196  -0.2000 
33    H13      0.6832  -39.9283   21.5242 H       1  LIG   0.0807   0.1000 
34    H14      1.5292  -40.4423   20.1061 H       1  LIG   0.0733   0.1000 
@<TRIPOS>BOND
1     2     1     ar
2     3     2     1
3     4     2     ar
4     5     4     1
5     6     4     ar
6     7     6     ar
7     8     7     1
8     9     8     1
9     10    8     1
10    11    10    1
11    12    11    ar
12    13    12    1
13    14    12    ar
14    15    14    1
15    16    14    ar
16    17    16    1
17    18    16    ar
18    19    11    ar
19    19    18    ar
20    20    19    1
21    21    1     ar
22    21    7     ar
23    21    20    1
24    22    6     1
25    23    22    1
26    24    22    1
27    25    22    1
28    26    10    2
29    27    20    1
30    28    27    1
31    29    27    1
32    30    29    1
33    31    29    1
34    32    27    1
35    32    29    1
36    33    32    1
37    34    32    1
@<TRIPOS>SUBSTRUCTURE
1   LIG    1    
 
########## Name        : 1VRT.lig
########## Description : AM1BCC_CHARGES =  -0.0002 ORIGINAL_CHARGES =  -0.0000

@<TRIPOS>MOLECULE
1VRT.lig
34    37    1     0     0    
SMALL
USER_CHARGES
@<TRIPOS>ATOM
1     N1       4.0540  -36.9310   22.2210 N.ar    1  LIG  -0.6650  -0.6200 
2     C1       4.9660  -36.2380   22.9390 C.ar    1  LIG   0.3947   0.1600 
3     H1       6.0082  -36.2811   22.6707 H       1  LIG   0.0281   0.1500 
4     C2       4.6240  -35.4500   24.0360 C.ar    1  LIG  -0.2334  -0.1500 
5     H2       5.3884  -34.9151   24.5740 H       1  LIG   0.1480   0.1500 
6     C3       3.3050  -35.3690   24.4150 C.ar    1  LIG  -0.0698  -0.1435 
7     C4       2.3460  -36.0770   23.6860 C.ar    1  LIG  -0.0398   0.1170 
8     N2       0.9890  -36.0280   24.1030 N.am    1  LIG  -0.4596  -0.5470 
9     H3       0.7643  -35.9928   25.0860 H       1  LIG   0.3311   0.3700 
10    C5      -0.1450  -36.0180   23.4080 C.2     1  LIG   0.7361   0.5438 
11    C6      -0.1190  -36.0770   21.8860 C.ar    1  LIG  -0.2550   0.0862 
12    C7      -1.1230  -35.3990   21.1890 C.ar    1  LIG  -0.0321  -0.1500 
13    H4      -1.7552  -34.6955   21.7041 H       1  LIG   0.1623   0.1500 
14    C8      -1.2960  -35.6300   19.8690 C.ar    1  LIG  -0.2723  -0.1500 
15    H5      -2.0662  -35.1073   19.3273 H       1  LIG   0.1522   0.1500 
16    C9      -0.4670  -36.5450   19.2400 C.ar    1  LIG   0.4373   0.1600 
17    H6      -0.5947  -36.7554   18.1915 H       1  LIG   0.0280   0.1500 
18    N3       0.5220  -37.2120   19.8740 N.ar    1  LIG  -0.6893  -0.6200 
19    C10      0.7040  -36.9790   21.1800 C.ar    1  LIG   0.6480   0.4100 
20    N4       1.7670  -37.6730   21.8260 N.pl3   1  LIG  -0.6924  -0.3690 
21    C11      2.7540  -36.8570   22.5840 C.ar    1  LIG   0.5805   0.4100 
22    C12      2.9040  -34.5090   25.6010 C.3     1  LIG  -0.0620   0.1435 
23    H7       2.2235  -33.7630   25.2820 H       1  LIG   0.0570   0.0000 
24    H8       2.4436  -35.1154   26.3371 H       1  LIG   0.0495   0.0000 
25    H9       3.7654  -34.0491   26.0108 H       1  LIG   0.0519   0.0000 
26    O1      -1.2400  -35.9060   23.9770 O.2     1  LIG  -0.6361  -0.5700 
27    C13      2.3440  -38.7570   21.0360 C.3     1  LIG   0.1354   0.0690 
28    H10      3.1238  -38.3754   20.4296 H       1  LIG   0.0981   0.1000 
29    C14      2.9380  -39.8900   21.8010 C.3     1  LIG  -0.1181  -0.2000 
30    H11      3.8890  -40.1268   21.3997 H       1  LIG   0.0732   0.1000 
31    H12      3.0430  -39.6129   22.8177 H       1  LIG   0.0789   0.1000 
32    C15      1.6390  -40.0610   21.0880 C.3     1  LIG  -0.1196  -0.2000 
33    H13      0.6832  -39.9283   21.5242 H       1  LIG   0.0807   0.1000 
34    H14      1.5292  -40.4423   20.1061 H       1  LIG   0.0733   0.1000 
@<TRIPOS>BOND
1     2     1     ar
2     3     2     1
3     4     2     ar
4     5     4     1
5     6     4     ar
6     7     6     ar
7     8     7     1
8     9     8     1
9     10    8     1
10    11    10    1
11    12    11    ar
12    13    12    1
13    14    12    ar
14    15    14    1
15    16    14    ar
16    17    16    1
17    18    16    ar
18    19    11    ar
19    19    18    ar
20    20    19    1
21    21    1     ar
22    21    7     ar
23    21    20    1
24    22    6     1
25    23    22    1
26    24    22    1
27    25    22    1
28    26    10    2
29    27    20    1
30    28    27    1
31    29    27    1
32    30    29    1
33    31    29    1
34    32    27    1
35    32    29    1
36    33    32    1
37    34    32    1
@<TRIPOS>SUBSTRUCTURE
1   LIG    1    
 
########## Name        : 1VRT.lig
########## Description : AM1BCC_CHARGES =  -0.0002 ORIGINAL_CHARGES =  -0.0000

@<TRIPOS>MOLECULE
1VRT.lig
34    37    1     0     0    
SMALL
USER_CHARGES
@<TRIPOS>ATOM
1     N1       4.0540  -36.9310   22.2210 N.ar    1  LIG  -0.6650  -0.6200 
2     C1       4.9660  -36.2380   22.9390 C.ar    1  LIG   0.3947   0.1600 
3     H1       6.0082  -36.2811   22.6707 H       1  LIG   0.0281   0.1500 
4     C2       4.6240  -35.4500   24.0360 C.ar    1  LIG  -0.2334  -0.1500 
5     H2       5.3884  -34.9151   24.5740 H       1  LIG   0.1480   0.1500 
6     C3       3.3050  -35.3690   24.4150 C.ar    1  LIG  -0.0698  -0.1435 
7     C4       2.3460  -36.0770   23.6860 C.ar    1  LIG  -0.0398   0.1170 
8     N2       0.9890  -36.0280   24.1030 N.am    1  LIG  -0.4596  -0.5470 
9     H3       0.7643  -35.9928   25.0860 H       1  LIG   0.3311   0.3700 
10    C5      -0.1450  -36.0180   23.4080 C.2     1  LIG   0.7361   0.5438 
11    C6      -0.1190  -36.0770   21.8860 C.ar    1  LIG  -0.2550   0.0862 
12    C7      -1.1230  -35.3990   21.1890 C.ar    1  LIG  -0.0321  -0.1500 
13    H4      -1.7552  -34.6955   21.7041 H       1  LIG   0.1623   0.1500 
14    C8      -1.2960  -35.6300   19.8690 C.ar    1  LIG  -0.2723  -0.1500 
15    H5      -2.0662  -35.1073   19.3273 H       1  LIG   0.1522   0.1500 
16    C9      -0.4670  -36.5450   19.2400 C.ar    1  LIG   0.4373   0.1600 
17    H6      -0.5947  -36.7554   18.1915 H       1  LIG   0.0280   0.1500 
18    N3       0.5220  -37.2120   19.8740 N.ar    1  LIG  -0.6893  -0.6200 
19    C10      0.7040  -36.9790   21.1800 C.ar    1  LIG   0.6480   0.4100 
20    N4       1.7670  -37.6730   21.8260 N.pl3   1  LIG  -0.6924  -0.3690 
21    C11      2.7540  -36.8570   22.5840 C.ar    1  LIG   0.5805   0.4100 
22    C12      2.9040  -34.5090   25.6010 C.3     1  LIG  -0.0620   0.1435 
23    H7       2.2235  -33.7630   25.2820 H       1  LIG   0.0570   0.0000 
24    H8       2.4436  -35.1154   26.3371 H       1  LIG   0.0495   0.0000 
25    H9       3.7654  -34.0491   26.0108 H       1  LIG   0.0519   0.0000 
26    O1      -1.2400  -35.9060   23.9770 O.2     1  LIG  -0.6361  -0.5700 
27    C13      2.3440  -38.7570   21.0360 C.3     1  LIG   0.1354   0.0690 
28    H10      3.1238  -38.3754   20.4296 H       1  LIG   0.0981   0.1000 
29    C14      2.9380  -39.8900   21.8010 C.3     1  LIG  -0.1181  -0.2000 
30    H11      3.8890  -40.1268   21.3997 H       1  LIG   0.0732   0.1000 
31    H12      3.0430  -39.6129   22.8177 H       1  LIG   0.0789   0.1000 
32    C15      1.6390  -40.0610   21.0880 C.3     1  LIG  -0.1196  -0.2000 
33    H13      0.6832  -39.9283   21.5242 H       1  LIG   0.0807   0.1000 
34    H14      1.5292  -40.4423   20.1061 H       1  LIG   0.0733   0.1000 
@<TRIPOS>BOND
1     2     1     ar
2     3     2     1
3     4     2     ar
4     5     4     1
5     6     4     ar
6     7     6     ar
7     8     7     1
8     9     8     1
9     10    8     1
10    11    10    1
11    12    11    ar
12    13    12    1
13    14    12    ar
14    15    14    1
15    16    14    ar
16    17    16    1
17    18    16    ar
18    19    11    ar
19    19    18    ar
20    20    19    1
21    21    1     ar
22    21    7     ar
23    21    20    1
24    22    6     1
25    23    22    1
26    24    22    1
27    25    22    1
28    26    10    2
29    27    20    1
30    28    27    1
31    29    27    1
32    30    29    1
33    31    29    1
34    32    27    1
35    32    29    1
36    33    32    1
37    34    32    1
@<TRIPOS>SUBSTRUCTURE
1   LIG    1    
 
########## Name        : 1VRT.lig
########## Description : AM1BCC_CHARGES =  -0.0002 ORIGINAL_CHARGES =  -0.0000

@<TRIPOS>MOLECULE
1VRT.lig
34    37    1     0     0    
SMALL
USER_CHARGES
@<TRIPOS>ATOM
1     N1       4.0540  -36.9310   22.2210 N.ar    1  LIG  -0.6650  -0.6200 
2     C1       4.9660  -36.2380   22.9390 C.ar    1  LIG   0.3947   0.1600 
3     H1       6.0082  -36.2811   22.6707 H       1  LIG   0.0281   0.1500 
4     C2       4.6240  -35.4500   24.0360 C.ar    1  LIG  -0.2334  -0.1500 
5     H2       5.3884  -34.9151   24.5740 H       1  LIG   0.1480   0.1500 
6     C3       3.3050  -35.3690   24.4150 C.ar    1  LIG  -0.0698  -0.1435 
7     C4       2.3460  -36.0770   23.6860 C.ar    1  LIG  -0.0398   0.1170 
8     N2       0.9890  -36.0280   24.1030 N.am    1  LIG  -0.4596  -0.5470 
9     H3       0.7643  -35.9928   25.0860 H       1  LIG   0.3311   0.3700 
10    C5      -0.1450  -36.0180   23.4080 C.2     1  LIG   0.7361   0.5438 
11    C6      -0.1190  -36.0770   21.8860 C.ar    1  LIG  -0.2550   0.0862 
12    C7      -1.1230  -35.3990   21.1890 C.ar    1  LIG  -0.0321  -0.1500 
13    H4      -1.7552  -34.6955   21.7041 H       1  LIG   0.1623   0.1500 
14    C8      -1.2960  -35.6300   19.8690 C.ar    1  LIG  -0.2723  -0.1500 
15    H5      -2.0662  -35.1073   19.3273 H       1  LIG   0.1522   0.1500 
16    C9      -0.4670  -36.5450   19.2400 C.ar    1  LIG   0.4373   0.1600 
17    H6      -0.5947  -36.7554   18.1915 H       1  LIG   0.0280   0.1500 
18    N3       0.5220  -37.2120   19.8740 N.ar    1  LIG  -0.6893  -0.6200 
19    C10      0.7040  -36.9790   21.1800 C.ar    1  LIG   0.6480   0.4100 
20    N4       1.7670  -37.6730   21.8260 N.pl3   1  LIG  -0.6924  -0.3690 
21    C11      2.7540  -36.8570   22.5840 C.ar    1  LIG   0.5805   0.4100 
22    C12      2.9040  -34.5090   25.6010 C.3     1  LIG  -0.0620   0.1435 
23    H7       2.2235  -33.7630   25.2820 H       1  LIG   0.0570   0.0000 
24    H8       2.4436  -35.1154   26.3371 H       1  LIG   0.0495   0.0000 
25    H9       3.7654  -34.0491   26.0108 H       1  LIG   0.0519   0.0000 
26    O1      -1.2400  -35.9060   23.9770 O.2     1  LIG  -0.6361  -0.5700 
27    C13      2.3440  -38.7570   21.0360 C.3     1  LIG   0.1354   0.0690 
28    H10      3.1238  -38.3754   20.4296 H       1  LIG   0.0981   0.1000 
29    C14      2.9380  -39.8900   21.8010 C.3     1  LIG  -0.1181  -0.2000 
30    H11      3.8890  -40.1268   21.3997 H       1  LIG   0.0732   0.1000 
31    H12      3.0430  -39.6129   22.8177 H       1  LIG   0.0789   0.1000 
32    C15      1.6390  -40.0610   21.0880 C.3     1  LIG  -0.1196  -0.2000 
33    H13      0.6832  -39.9283   21.5242 H       1  LIG   0.0807   0.1000 
34    H14      1.5292  -40.4423   20.1061 H       1  LIG   0.0733   0.1000 
@<TRIPOS>BOND
1     2     1     ar
2     3     2     1
3     4     2     ar
4     5     4     1
5     6     4     ar
6     7     6     ar
7     8     7     1
8     9     8     1
9     10    8     1
10    11    10    1
11    12    11    ar
12    13    12    1
13    14    12    ar
14    15    14    1
15    16    14    ar
16    17    16    1
17    18    16    ar
18    19    11    ar
19    19    18    ar
20    20    19    1
21    21    1     ar
22    21    7     ar
23    21    20    1
24    22    6     1
25    23    22    1
26    24    22    1
27    25    22    1
28    26    10    2
29    27    20    1
30    28    27    1
31    29    27    1
32    30    29    1
33    31    29    1
34    32    27    1
35    32    29    1
36    33    32    1
37    34    32    1
@<TRIPOS>SUBSTRUCTURE
1   LIG    1    
 
########## Name        : 1VRT.lig
########## Description : AM1BCC_CHARGES =  -0.0002 ORIGINAL_CHARGES =  -0.0000

@<TRIPOS>MOLECULE
1VRT.lig
34    37    1     0     0    
SMALL
USER_CHARGES
@<TRIPOS>ATOM
1     N1       4.0540  -36.9310   22.2210 N.ar    1  LIG  -0.6650  -0.6200 
2     C1       4.9660  -36.2380   22.9390 C.ar    1  LIG   0.3947   0.1600 
3     H1       6.0082  -36.2811   22.6707 H       1  LIG   0.0281   0.1500 
4     C2       4.6240  -35.4500   24.0360 C.ar    1  LIG  -0.2334  -0.1500 
5     H2       5.3884  -34.9151   24.5740 H       1  LIG   0.1480   0.1500 
6     C3       3.3050  -35.3690   24.4150 C.ar    1  LIG  -0.0698  -0.1435 
7     C4       2.3460  -36.0770   23.6860 C.ar    1  LIG  -0.0398   0.1170 
8     N2       0.9890  -36.0280   24.1030 N.am    1  LIG  -0.4596  -0.5470 
9     H3       0.7643  -35.9928   25.0860 H       1  LIG   0.3311   0.3700 
10    C5      -0.1450  -36.0180   23.4080 C.2     1  LIG   0.7361   0.5438 
11    C6      -0.1190  -36.0770   21.8860 C.ar    1  LIG  -0.2550   0.0862 
12    C7      -1.1230  -35.3990   21.1890 C.ar    1  LIG  -0.0321  -0.1500 
13    H4      -1.7552  -34.6955   21.7041 H       1  LIG   0.1623   0.1500 
14    C8      -1.2960  -35.6300   19.8690 C.ar    1  LIG  -0.2723  -0.1500 
15    H5      -2.0662  -35.1073   19.3273 H       1  LIG   0.1522   0.1500 
16    C9      -0.4670  -36.5450   19.2400 C.ar    1  LIG   0.4373   0.1600 
17    H6      -0.5947  -36.7554   18.1915 H       1  LIG   0.0280   0.1500 
18    N3       0.5220  -37.2120   19.8740 N.ar    1  LIG  -0.6893  -0.6200 
19    C10      0.7040  -36.9790   21.1800 C.ar    1  LIG   0.6480   0.4100 
20    N4       1.7670  -37.6730   21.8260 N.pl3   1  LIG  -0.6924  -0.3690 
21    C11      2.7540  -36.8570   22.5840 C.ar    1  LIG   0.5805   0.4100 
22    C12      2.9040  -34.5090   25.6010 C.3     1  LIG  -0.0620   0.1435 
23    H7       2.2235  -33.7630   25.2820 H       1  LIG   0.0570   0.0000 
24    H8       2.4436  -35.1154   26.3371 H       1  LIG   0.0495   0.0000 
25    H9       3.7654  -34.0491   26.0108 H       1  LIG   0.0519   0.0000 
26    O1      -1.2400  -35.9060   23.9770 O.2     1  LIG  -0.6361  -0.5700 
27    C13      2.3440  -38.7570   21.0360 C.3     1  LIG   0.1354   0.0690 
28    H10      3.1238  -38.3754   20.4296 H       1  LIG   0.0981   0.1000 
29    C14      2.9380  -39.8900   21.8010 C.3     1  LIG  -0.1181  -0.2000 
30    H11      3.8890  -40.1268   21.3997 H       1  LIG   0.0732   0.1000 
31    H12      3.0430  -39.6129   22.8177 H       1  LIG   0.0789   0.1000 
32    C15      1.6390  -40.0610   21.0880 C.3     1  LIG  -0.1196  -0.2000 
33    H13      0.6832  -39.9283   21.5242 H       1  LIG   0.0807   0.1000 
34    H14      1.5292  -40.4423   20.1061 H       1  LIG   0.0733   0.1000 
@<TRIPOS>BOND
1     2     1     ar
2     3     2     1
3     4     2     ar
4     5     4     1
5     6     4     ar
6     7     6     ar
7     8     7     1
8     9     8     1
9     10    8     1
10    11    10    1
11    12    11    ar
12    13    12    1
13    14    12    ar
14    15    14    1
15    16    14    ar
16    17    16    1
17    18    16    ar
18    19    11    ar
19    19    18    ar
20    20    19    1
21    21    1     ar
22    21    7     ar
23    21    20    1
24    22    6     1
25    23    22    1
26    24    22    1
27    25    22    1
28    26    10    2
29    27    20    1
30    28    27    1
31    29    27    1
32    30    29    1
33    31    29    1
34    32    27    1
35    32    29    1
36    33    32    1
37    34    32    1
@<TRIPOS>SUBSTRUCTURE
1   LIG    1    
 
########## Name        : 1VRT.lig
########## Description : AM1BCC_CHARGES =  -0.0002 ORIGINAL_CHARGES =  -0.0000

@<TRIPOS>MOLECULE
1VRT.lig
34    37    1     0     0    
SMALL
USER_CHARGES
@<TRIPOS>ATOM
1     N1       4.0540  -36.9310   22.2210 N.ar    1  LIG  -0.6650  -0.6200 
2     C1       4.9660  -36.2380   22.9390 C.ar    1  LIG   0.3947   0.1600 
3     H1       6.0082  -36.2811   22.6707 H       1  LIG   0.0281   0.1500 
4     C2       4.6240  -35.4500   24.0360 C.ar    1  LIG  -0.2334  -0.1500 
5     H2       5.3884  -34.9151   24.5740 H       1  LIG   0.1480   0.1500 
6     C3       3.3050  -35.3690   24.4150 C.ar    1  LIG  -0.0698  -0.1435 
7     C4       2.3460  -36.0770   23.6860 C.ar    1  LIG  -0.0398   0.1170 
8     N2       0.9890  -36.0280   24.1030 N.am    1  LIG  -0.4596  -0.5470 
9     H3       0.7643  -35.9928   25.0860 H       1  LIG   0.3311   0.3700 
10    C5      -0.1450  -36.0180   23.4080 C.2     1  LIG   0.7361   0.5438 
11    C6      -0.1190  -36.0770   21.8860 C.ar    1  LIG  -0.2550   0.0862 
12    C7      -1.1230  -35.3990   21.1890 C.ar    1  LIG  -0.0321  -0.1500 
13    H4      -1.7552  -34.6955   21.7041 H       1  LIG   0.1623   0.1500 
14    C8      -1.2960  -35.6300   19.8690 C.ar    1  LIG  -0.2723  -0.1500 
15    H5      -2.0662  -35.1073   19.3273 H       1  LIG   0.1522   0.1500 
16    C9      -0.4670  -36.5450   19.2400 C.ar    1  LIG   0.4373   0.1600 
17    H6      -0.5947  -36.7554   18.1915 H       1  LIG   0.0280   0.1500 
18    N3       0.5220  -37.2120   19.8740 N.ar    1  LIG  -0.6893  -0.6200 
19    C10      0.7040  -36.9790   21.1800 C.ar    1  LIG   0.6480   0.4100 
20    N4       1.7670  -37.6730   21.8260 N.pl3   1  LIG  -0.6924  -0.3690 
21    C11      2.7540  -36.8570   22.5840 C.ar    1  LIG   0.5805   0.4100 
22    C12      2.9040  -34.5090   25.6010 C.3     1  LIG  -0.0620   0.1435 
23    H7       2.2235  -33.7630   25.2820 H       1  LIG   0.0570   0.0000 
24    H8       2.4436  -35.1154   26.3371 H       1  LIG   0.0495   0.0000 
25    H9       3.7654  -34.0491   26.0108 H       1  LIG   0.0519   0.0000 
26    O1      -1.2400  -35.9060   23.9770 O.2     1  LIG  -0.6361  -0.5700 
27    C13      2.3440  -38.7570   21.0360 C.3     1  LIG   0.1354   0.0690 
28    H10      3.1238  -38.3754   20.4296 H       1  LIG   0.0981   0.1000 
29    C14      2.9380  -39.8900   21.8010 C.3     1  LIG  -0.1181  -0.2000 
30    H11      3.8890  -40.1268   21.3997 H       1  LIG   0.0732   0.1000 
31    H12      3.0430  -39.6129   22.8177 H       1  LIG   0.0789   0.1000 
32    C15      1.6390  -40.0610   21.0880 C.3     1  LIG  -0.1196  -0.2000 
33    H13      0.6832  -39.9283   21.5242 H       1  LIG   0.0807   0.1000 
34    H14      1.5292  -40.4423   20.1061 H       1  LIG   0.0733   0.1000 
@<TRIPOS>BOND
1     2     1     ar
2     3     2     1
3     4     2     ar
4     5     4     1
5     6     4     ar
6     7     6     ar
7     8     7     1
8     9     8     1
9     10    8     1
10    11    10    1
11    12    11    ar
12    13    12    1
13    14    12    ar
14    15    14    1
15    16    14    ar
16    17    16    1
17    18    16    ar
18    19    11    ar
19    19    18    ar
20    20    19    1
21    21    1     ar
22    21    7     ar
23    21    20    1
24    22    6     1
25    23    22    1
26    24    22    1
27    25    22    1
28    26    10    2
29    27    20    1
30    28    27    1
31    29    27    1
32    30    29    1
33    31    29    1
34    32    27    1
35    32    29    1
36    33    32    1
37    34    32    1
@<TRIPOS>SUBSTRUCTURE
1   LIG    1    
 
########## Name        : 1VRT.lig
########## Description : AM1BCC_CHARGES =  -0.0002 ORIGINAL_CHARGES =  -0.0000

@<TRIPOS>MOLECULE
1VRT.lig
34    37    1     0     0    
SMALL
USER_CHARGES
@<TRIPOS>ATOM
1     N1       4.0540  -36.9310   22.2210 N.ar    1  LIG  -0.6650  -0.6200 
2     C1       4.9660  -36.2380   22.9390 C.ar    1  LIG   0.3947   0.1600 
3     H1       6.0082  -36.2811   22.6707 H       1  LIG   0.0281   0.1500 
4     C2       4.6240  -35.4500   24.0360 C.ar    1  LIG  -0.2334  -0.1500 
5     H2       5.3884  -34.9151   24.5740 H       1  LIG   0.1480   0.1500 
6     C3       3.3050  -35.3690   24.4150 C.ar    1  LIG  -0.0698  -0.1435 
7     C4       2.3460  -36.0770   23.6860 C.ar    1  LIG  -0.0398   0.1170 
8     N2       0.9890  -36.0280   24.1030 N.am    1  LIG  -0.4596  -0.5470 
9     H3       0.7643  -35.9928   25.0860 H       1  LIG   0.3311   0.3700 
10    C5      -0.1450  -36.0180   23.4080 C.2     1  LIG   0.7361   0.5438 
11    C6      -0.1190  -36.0770   21.8860 C.ar    1  LIG  -0.2550   0.0862 
12    C7      -1.1230  -35.3990   21.1890 C.ar    1  LIG  -0.0321  -0.1500 
13    H4      -1.7552  -34.6955   21.7041 H       1  LIG   0.1623   0.1500 
14    C8      -1.2960  -35.6300   19.8690 C.ar    1  LIG  -0.2723  -0.1500 
15    H5      -2.0662  -35.1073   19.3273 H       1  LIG   0.1522   0.1500 
16    C9      -0.4670  -36.5450   19.2400 C.ar    1  LIG   0.4373   0.1600 
17    H6      -0.5947  -36.7554   18.1915 H       1  LIG   0.0280   0.1500 
18    N3       0.5220  -37.2120   19.8740 N.ar    1  LIG  -0.6893  -0.6200 
19    C10      0.7040  -36.9790   21.1800 C.ar    1  LIG   0.6480   0.4100 
20    N4       1.7670  -37.6730   21.8260 N.pl3   1  LIG  -0.6924  -0.3690 
21    C11      2.7540  -36.8570   22.5840 C.ar    1  LIG   0.5805   0.4100 
22    C12      2.9040  -34.5090   25.6010 C.3     1  LIG  -0.0620   0.1435 
23    H7       2.2235  -33.7630   25.2820 H       1  LIG   0.0570   0.0000 
24    H8       2.4436  -35.1154   26.3371 H       1  LIG   0.0495   0.0000 
25    H9       3.7654  -34.0491   26.0108 H       1  LIG   0.0519   0.0000 
26    O1      -1.2400  -35.9060   23.9770 O.2     1  LIG  -0.6361  -0.5700 
27    C13      2.3440  -38.7570   21.0360 C.3     1  LIG   0.1354   0.0690 
28    H10      3.1238  -38.3754   20.4296 H       1  LIG   0.0981   0.1000 
29    C14      2.9380  -39.8900   21.8010 C.3     1  LIG  -0.1181  -0.2000 
30    H11      3.8890  -40.1268   21.3997 H       1  LIG   0.0732   0.1000 
31    H12      3.0430  -39.6129   22.8177 H       1  LIG   0.0789   0.1000 
32    C15      1.6390  -40.0610   21.0880 C.3     1  LIG  -0.1196  -0.2000 
33    H13      0.6832  -39.9283   21.5242 H       1  LIG   0.0807   0.1000 
34    H14      1.5292  -40.4423   20.1061 H       1  LIG   0.0733   0.1000 
@<TRIPOS>BOND
1     2     1     ar
2     3     2     1
3     4     2     ar
4     5     4     1
5     6     4     ar
6     7     6     ar
7     8     7     1
8     9     8     1
9     10    8     1
10    11    10    1
11    12    11    ar
12    13    12    1
13    14    12    ar
14    15    14    1
15    16    14    ar
16    17    16    1
17    18    16    ar
18    19    11    ar
19    19    18    ar
20    20    19    1
21    21    1     ar
22    21    7     ar
23    21    20    1
24    22    6     1
25    23    22    1
26    24    22    1
27    25    22    1
28    26    10    2
29    27    20    1
30    28    27    1
31    29    27    1
32    30    29    1
33    31    29    1
34    32    27    1
35    32    29    1
36    33    32    1
37    34    32    1
@<TRIPOS>SUBSTRUCTURE
1   LIG    1    
 
########## Name        : 1VRT.lig
########## Description : AM1BCC_CHARGES =  -0.0002 ORIGINAL_CHARGES =  -0.0000

@<TRIPOS>MOLECULE
1VRT.lig
34    37    1     0     0    
SMALL
USER_CHARGES
@<TRIPOS>ATOM
1     N1       4.0540  -36.9310   22.2210 N.ar    1  LIG  -0.6650  -0.6200 
2     C1       4.9660  -36.2380   22.9390 C.ar    1  LIG   0.3947   0.1600 
3     H1       6.0082  -36.2811   22.6707 H       1  LIG   0.0281   0.1500 
4     C2       4.6240  -35.4500   24.0360 C.ar    1  LIG  -0.2334  -0.1500 
5     H2       5.3884  -34.9151   24.5740 H       1  LIG   0.1480   0.1500 
6     C3       3.3050  -35.3690   24.4150 C.ar    1  LIG  -0.0698  -0.1435 
7     C4       2.3460  -36.0770   23.6860 C.ar    1  LIG  -0.0398   0.1170 
8     N2       0.9890  -36.0280   24.1030 N.am    1  LIG  -0.4596  -0.5470 
9     H3       0.7643  -35.9928   25.0860 H       1  LIG   0.3311   0.3700 
10    C5      -0.1450  -36.0180   23.4080 C.2     1  LIG   0.7361   0.5438 
11    C6      -0.1190  -36.0770   21.8860 C.ar    1  LIG  -0.2550   0.0862 
12    C7      -1.1230  -35.3990   21.1890 C.ar    1  LIG  -0.0321  -0.1500 
13    H4      -1.7552  -34.6955   21.7041 H       1  LIG   0.1623   0.1500 
14    C8      -1.2960  -35.6300   19.8690 C.ar    1  LIG  -0.2723  -0.1500 
15    H5      -2.0662  -35.1073   19.3273 H       1  LIG   0.1522   0.1500 
16    C9      -0.4670  -36.5450   19.2400 C.ar    1  LIG   0.4373   0.1600 
17    H6      -0.5947  -36.7554   18.1915 H       1  LIG   0.0280   0.1500 
18    N3       0.5220  -37.2120   19.8740 N.ar    1  LIG  -0.6893  -0.6200 
19    C10      0.7040  -36.9790   21.1800 C.ar    1  LIG   0.6480   0.4100 
20    N4       1.7670  -37.6730   21.8260 N.pl3   1  LIG  -0.6924  -0.3690 
21    C11      2.7540  -36.8570   22.5840 C.ar    1  LIG   0.5805   0.4100 
22    C12      2.9040  -34.5090   25.6010 C.3     1  LIG  -0.0620   0.1435 
23    H7       2.2235  -33.7630   25.2820 H       1  LIG   0.0570   0.0000 
24    H8       2.4436  -35.1154   26.3371 H       1  LIG   0.0495   0.0000 
25    H9       3.7654  -34.0491   26.0108 H       1  LIG   0.0519   0.0000 
26    O1      -1.2400  -35.9060   23.9770 O.2     1  LIG  -0.6361  -0.5700 
27    C13      2.3440  -38.7570   21.0360 C.3     1  LIG   0.1354   0.0690 
28    H10      3.1238  -38.3754   20.4296 H       1  LIG   0.0981   0.1000 
29    C14      2.9380  -39.8900   21.8010 C.3     1  LIG  -0.1181  -0.2000 
30    H11      3.8890  -40.1268   21.3997 H       1  LIG   0.0732   0.1000 
31    H12      3.0430  -39.6129   22.8177 H       1  LIG   0.0789   0.1000 
32    C15      1.6390  -40.0610   21.0880 C.3     1  LIG  -0.1196  -0.2000 
33    H13      0.6832  -39.9283   21.5242 H       1  LIG   0.0807   0.1000 
34    H14      1.5292  -40.4423   20.1061 H       1  LIG   0.0733   0.1000 
@<TRIPOS>BOND
1     2     1     ar
2     3     2     1
3     4     2     ar
4     5     4     1
5     6     4     ar
6     7     6     ar
7     8     7     1
8     9     8     1
9     10    8     1
10    11    10    1
11    12    11    ar
12    13    12    1
13    14    12    ar
14    15    14    1
15    16    14    ar
16    17    16    1
17    18    16    ar
18    19    11    ar
19    19    18    ar
20    20    19    1
21    21    1     ar
22    21    7     ar
23    21    20    1
24    22    6     1
25    23    22    1
26    24    22    1
27    25    22    1
28    26    10    2
29    27    20    1
30    28    27    1
31    29    27    1
32    30    29    1
33    31    29    1
34    32    27    1
35    32    29    1
36    33    32    1
37    34    32    1
@<TRIPOS>SUBSTRUCTURE
1   LIG    1    
 
########## Name        : 1VRT.lig
########## Description : AM1BCC_CHARGES =  -0.0002 ORIGINAL_CHARGES =  -0.0000

@<TRIPOS>MOLECULE
1VRT.lig
34    37    1     0     0    
SMALL
USER_CHARGES
@<TRIPOS>ATOM
1     N1       4.0540  -36.9310   22.2210 N.ar    1  LIG  -0.6650  -0.6200 
2     C1       4.9660  -36.2380   22.9390 C.ar    1  LIG   0.3947   0.1600 
3     H1       6.0082  -36.2811   22.6707 H       1  LIG   0.0281   0.1500 
4     C2       4.6240  -35.4500   24.0360 C.ar    1  LIG  -0.2334  -0.1500 
5     H2       5.3884  -34.9151   24.5740 H       1  LIG   0.1480   0.1500 
6     C3       3.3050  -35.3690   24.4150 C.ar    1  LIG  -0.0698  -0.1435 
7     C4       2.3460  -36.0770   23.6860 C.ar    1  LIG  -0.0398   0.1170 
8     N2       0.9890  -36.0280   24.1030 N.am    1  LIG  -0.4596  -0.5470 
9     H3       0.7643  -35.9928   25.0860 H       1  LIG   0.3311   0.3700 
10    C5      -0.1450  -36.0180   23.4080 C.2     1  LIG   0.7361   0.5438 
11    C6      -0.1190  -36.0770   21.8860 C.ar    1  LIG  -0.2550   0.0862 
12    C7      -1.1230  -35.3990   21.1890 C.ar    1  LIG  -0.0321  -0.1500 
13    H4      -1.7552  -34.6955   21.7041 H       1  LIG   0.1623   0.1500 
14    C8      -1.2960  -35.6300   19.8690 C.ar    1  LIG  -0.2723  -0.1500 
15    H5      -2.0662  -35.1073   19.3273 H       1  LIG   0.1522   0.1500 
16    C9      -0.4670  -36.5450   19.2400 C.ar    1  LIG   0.4373   0.1600 
17    H6      -0.5947  -36.7554   18.1915 H       1  LIG   0.0280   0.1500 
18    N3       0.5220  -37.2120   19.8740 N.ar    1  LIG  -0.6893  -0.6200 
19    C10      0.7040  -36.9790   21.1800 C.ar    1  LIG   0.6480   0.4100 
20    N4       1.7670  -37.6730   21.8260 N.pl3   1  LIG  -0.6924  -0.3690 
21    C11      2.7540  -36.8570   22.5840 C.ar    1  LIG   0.5805   0.4100 
22    C12      2.9040  -34.5090   25.6010 C.3     1  LIG  -0.0620   0.1435 
23    H7       2.2235  -33.7630   25.2820 H       1  LIG   0.0570   0.0000 
24    H8       2.4436  -35.1154   26.3371 H       1  LIG   0.0495   0.0000 
25    H9       3.7654  -34.0491   26.0108 H       1  LIG   0.0519   0.0000 
26    O1      -1.2400  -35.9060   23.9770 O.2     1  LIG  -0.6361  -0.5700 
27    C13      2.3440  -38.7570   21.0360 C.3     1  LIG   0.1354   0.0690 
28    H10      3.1238  -38.3754   20.4296 H       1  LIG   0.0981   0.1000 
29    C14      2.9380  -39.8900   21.8010 C.3     1  LIG  -0.1181  -0.2000 
30    H11      3.8890  -40.1268   21.3997 H       1  LIG   0.0732   0.1000 
31    H12      3.0430  -39.6129   22.8177 H       1  LIG   0.0789   0.1000 
32    C15      1.6390  -40.0610   21.0880 C.3     1  LIG  -0.1196  -0.2000 
33    H13      0.6832  -39.9283   21.5242 H       1  LIG   0.0807   0.1000 
34    H14      1.5292  -40.4423   20.1061 H       1  LIG   0.0733   0.1000 
@<TRIPOS>BOND
1     2     1     ar
2     3     2     1
3     4     2     ar
4     5     4     1
5     6     4     ar
6     7     6     ar
7     8     7     1
8     9     8     1
9     10    8     1
10    11    10    1
11    12    11    ar
12    13    12    1
13    14    12    ar
14    15    14    1
15    16    14    ar
16    17    16    1
17    18    16    ar
18    19    11    ar
19    19    18    ar
20    20    19    1
21    21    1     ar
22    21    7     ar
23    21    20    1
24    22    6     1
25    23    22    1
26    24    22    1
27    25    22    1
28    26    10    2
29    27    20    1
30    28    27    1
31    29    27    1
32    30    29    1
33    31    29    1
34    32    27    1
35    32    29    1
36    33    32    1
37    34    32    1
@<TRIPOS>SUBSTRUCTURE
1   LIG    1    
 
########## Name        : 1VRT.lig
########## Description : AM1BCC_CHARGES =  -0.0002 ORIGINAL_CHARGES =  -0.0000

@<TRIPOS>MOLECULE
1VRT.lig
34    37    1     0     0    
SMALL
USER_CHARGES
@<TRIPOS>ATOM
1     N1       4.0540  -36.9310   22.2210 N.ar    1  LIG  -0.6650  -0.6200 
2     C1       4.9660  -36.2380   22.9390 C.ar    1  LIG   0.3947   0.1600 
3     H1       6.0082  -36.2811   22.6707 H       1  LIG   0.0281   0.1500 
4     C2       4.6240  -35.4500   24.0360 C.ar    1  LIG  -0.2334  -0.1500 
5     H2       5.3884  -34.9151   24.5740 H       1  LIG   0.1480   0.1500 
6     C3       3.3050  -35.3690   24.4150 C.ar    1  LIG  -0.0698  -0.1435 
7     C4       2.3460  -36.0770   23.6860 C.ar    1  LIG  -0.0398   0.1170 
8     N2       0.9890  -36.0280   24.1030 N.am    1  LIG  -0.4596  -0.5470 
9     H3       0.7643  -35.9928   25.0860 H       1  LIG   0.3311   0.3700 
10    C5      -0.1450  -36.0180   23.4080 C.2     1  LIG   0.7361   0.5438 
11    C6      -0.1190  -36.0770   21.8860 C.ar    1  LIG  -0.2550   0.0862 
12    C7      -1.1230  -35.3990   21.1890 C.ar    1  LIG  -0.0321  -0.1500 
13    H4      -1.7552  -34.6955   21.7041 H       1  LIG   0.1623   0.1500 
14    C8      -1.2960  -35.6300   19.8690 C.ar    1  LIG  -0.2723  -0.1500 
15    H5      -2.0662  -35.1073   19.3273 H       1  LIG   0.1522   0.1500 
16    C9      -0.4670  -36.5450   19.2400 C.ar    1  LIG   0.4373   0.1600 
17    H6      -0.5947  -36.7554   18.1915 H       1  LIG   0.0280   0.1500 
18    N3       0.5220  -37.2120   19.8740 N.ar    1  LIG  -0.6893  -0.6200 
19    C10      0.7040  -36.9790   21.1800 C.ar    1  LIG   0.6480   0.4100 
20    N4       1.7670  -37.6730   21.8260 N.pl3   1  LIG  -0.6924  -0.3690 
21    C11      2.7540  -36.8570   22.5840 C.ar    1  LIG   0.5805   0.4100 
22    C12      2.9040  -34.5090   25.6010 C.3     1  LIG  -0.0620   0.1435 
23    H7       2.2235  -33.7630   25.2820 H       1  LIG   0.0570   0.0000 
24    H8       2.4436  -35.1154   26.3371 H       1  LIG   0.0495   0.0000 
25    H9       3.7654  -34.0491   26.0108 H       1  LIG   0.0519   0.0000 
26    O1      -1.2400  -35.9060   23.9770 O.2     1  LIG  -0.6361  -0.5700 
27    C13      2.3440  -38.7570   21.0360 C.3     1  LIG   0.1354   0.0690 
28    H10      3.1238  -38.3754   20.4296 H       1  LIG   0.0981   0.1000 
29    C14      2.9380  -39.8900   21.8010 C.3     1  LIG  -0.1181  -0.2000 
30    H11      3.8890  -40.1268   21.3997 H       1  LIG   0.0732   0.1000 
31    H12      3.0430  -39.6129   22.8177 H       1  LIG   0.0789   0.1000 
32    C15      1.6390  -40.0610   21.0880 C.3     1  LIG  -0.1196  -0.2000 
33    H13      0.6832  -39.9283   21.5242 H       1  LIG   0.0807   0.1000 
34    H14      1.5292  -40.4423   20.1061 H       1  LIG   0.0733   0.1000 
@<TRIPOS>BOND
1     2     1     ar
2     3     2     1
3     4     2     ar
4     5     4     1
5     6     4     ar
6     7     6     ar
7     8     7     1
8     9     8     1
9     10    8     1
10    11    10    1
11    12    11    ar
12    13    12    1
13    14    12    ar
14    15    14    1
15    16    14    ar
16    17    16    1
17    18    16    ar
18    19    11    ar
19    19    18    ar
20    20    19    1
21    21    1     ar
22    21    7     ar
23    21    20    1
24    22    6     1
25    23    22    1
26    24    22    1
27    25    22    1
28    26    10    2
29    27    20    1
30    28    27    1
31    29    27    1
32    30    29    1
33    31    29    1
34    32    27    1
35    32    29    1
36    33    32    1
37    34    32    1
@<TRIPOS>SUBSTRUCTURE
1   LIG    1    
 
########## Name        : 1VRT.lig
########## Description : AM1BCC_CHARGES =  -0.0002 ORIGINAL_CHARGES =  -0.0000

@<TRIPOS>MOLECULE
1VRT.lig
34    37    1     0     0    
SMALL
USER_CHARGES
@<TRIPOS>ATOM
1     N1       4.0540  -36.9310   22.2210 N.ar    1  LIG  -0.6650  -0.6200 
2     C1       4.9660  -36.2380   22.9390 C.ar    1  LIG   0.3947   0.1600 
3     H1       6.0082  -36.2811   22.6707 H       1  LIG   0.0281   0.1500 
4     C2       4.6240  -35.4500   24.0360 C.ar    1  LIG  -0.2334  -0.1500 
5     H2       5.3884  -34.9151   24.5740 H       1  LIG   0.1480   0.1500 
6     C3       3.3050  -35.3690   24.4150 C.ar    1  LIG  -0.0698  -0.1435 
7     C4       2.3460  -36.0770   23.6860 C.ar    1  LIG  -0.0398   0.1170 
8     N2       0.9890  -36.0280   24.1030 N.am    1  LIG  -0.4596  -0.5470 
9     H3       0.7643  -35.9928   25.0860 H       1  LIG   0.3311   0.3700 
10    C5      -0.1450  -36.0180   23.4080 C.2     1  LIG   0.7361   0.5438 
11    C6      -0.1190  -36.0770   21.8860 C.ar    1  LIG  -0.2550   0.0862 
12    C7      -1.1230  -35.3990   21.1890 C.ar    1  LIG  -0.0321  -0.1500 
13    H4      -1.7552  -34.6955   21.7041 H       1  LIG   0.1623   0.1500 
14    C8      -1.2960  -35.6300   19.8690 C.ar    1  LIG  -0.2723  -0.1500 
15    H5      -2.0662  -35.1073   19.3273 H       1  LIG   0.1522   0.1500 
16    C9      -0.4670  -36.5450   19.2400 C.ar    1  LIG   0.4373   0.1600 
17    H6      -0.5947  -36.7554   18.1915 H       1  LIG   0.0280   0.1500 
18    N3       0.5220  -37.2120   19.8740 N.ar    1  LIG  -0.6893  -0.6200 
19    C10      0.7040  -36.9790   21.1800 C.ar    1  LIG   0.6480   0.4100 
20    N4       1.7670  -37.6730   21.8260 N.pl3   1  LIG  -0.6924  -0.3690 
21    C11      2.7540  -36.8570   22.5840 C.ar    1  LIG   0.5805   0.4100 
22    C12      2.9040  -34.5090   25.6010 C.3     1  LIG  -0.0620   0.1435 
23    H7       2.2235  -33.7630   25.2820 H       1  LIG   0.0570   0.0000 
24    H8       2.4436  -35.1154   26.3371 H       1  LIG   0.0495   0.0000 
25    H9       3.7654  -34.0491   26.0108 H       1  LIG   0.0519   0.0000 
26    O1      -1.2400  -35.9060   23.9770 O.2     1  LIG  -0.6361  -0.5700 
27    C13      2.3440  -38.7570   21.0360 C.3     1  LIG   0.1354   0.0690 
28    H10      3.1238  -38.3754   20.4296 H       1  LIG   0.0981   0.1000 
29    C14      2.9380  -39.8900   21.8010 C.3     1  LIG  -0.1181  -0.2000 
30    H11      3.8890  -40.1268   21.3997 H       1  LIG   0.0732   0.1000 
31    H12      3.0430  -39.6129   22.8177 H       1  LIG   0.0789   0.1000 
32    C15      1.6390  -40.0610   21.0880 C.3     1  LIG  -0.1196  -0.2000 
33    H13      0.6832  -39.9283   21.5242 H       1  LIG   0.0807   0.1000 
34    H14      1.5292  -40.4423   20.1061 H       1  LIG   0.0733   0.1000 
@<TRIPOS>BOND
1     2     1     ar
2     3     2     1
3     4     2     ar
4     5     4     1
5     6     4     ar
6     7     6     ar
7     8     7     1
8     9     8     1
9     10    8     1
10    11    10    1
11    12    11    ar
12    13    12    1
13    14    12    ar
14    15    14    1
15    16    14    ar
16    17    16    1
17    18    16    ar
18    19    11    ar
19    19    18    ar
20    20    19    1
21    21    1     ar
22    21    7     ar
23    21    20    1
24    22    6     1
25    23    22    1
26    24    22    1
27    25    22    1
28    26    10    2
29    27    20    1
30    28    27    1
31    29    27    1
32    30    29    1
33    31    29    1
34    32    27    1
35    32    29    1
36    33    32    1
37    34    32    1
@<TRIPOS>SUBSTRUCTURE
1   LIG    1    
 
########## Name        : 1VRT.lig
########## Description : AM1BCC_CHARGES =  -0.0002 ORIGINAL_CHARGES =  -0.0000

@<TRIPOS>MOLECULE
1VRT.lig
34    37    1     0     0    
SMALL
USER_CHARGES
@<TRIPOS>ATOM
1     N1       4.0540  -36.9310   22.2210 N.ar    1  LIG  -0.6650  -0.6200 
2     C1       4.9660  -36.2380   22.9390 C.ar    1  LIG   0.3947   0.1600 
3     H1       6.0082  -36.2811   22.6707 H       1  LIG   0.0281   0.1500 
4     C2       4.6240  -35.4500   24.0360 C.ar    1  LIG  -0.2334  -0.1500 
5     H2       5.3884  -34.9151   24.5740 H       1  LIG   0.1480   0.1500 
6     C3       3.3050  -35.3690   24.4150 C.ar    1  LIG  -0.0698  -0.1435 
7     C4       2.3460  -36.0770   23.6860 C.ar    1  LIG  -0.0398   0.1170 
8     N2       0.9890  -36.0280   24.1030 N.am    1  LIG  -0.4596  -0.5470 
9     H3       0.7643  -35.9928   25.0860 H       1  LIG   0.3311   0.3700 
10    C5      -0.1450  -36.0180   23.4080 C.2     1  LIG   0.7361   0.5438 
11    C6      -0.1190  -36.0770   21.8860 C.ar    1  LIG  -0.2550   0.0862 
12    C7      -1.1230  -35.3990   21.1890 C.ar    1  LIG  -0.0321  -0.1500 
13    H4      -1.7552  -34.6955   21.7041 H       1  LIG   0.1623   0.1500 
14    C8      -1.2960  -35.6300   19.8690 C.ar    1  LIG  -0.2723  -0.1500 
15    H5      -2.0662  -35.1073   19.3273 H       1  LIG   0.1522   0.1500 
16    C9      -0.4670  -36.5450   19.2400 C.ar    1  LIG   0.4373   0.1600 
17    H6      -0.5947  -36.7554   18.1915 H       1  LIG   0.0280   0.1500 
18    N3       0.5220  -37.2120   19.8740 N.ar    1  LIG  -0.6893  -0.6200 
19    C10      0.7040  -36.9790   21.1800 C.ar    1  LIG   0.6480   0.4100 
20    N4       1.7670  -37.6730   21.8260 N.pl3   1  LIG  -0.6924  -0.3690 
21    C11      2.7540  -36.8570   22.5840 C.ar    1  LIG   0.5805   0.4100 
22    C12      2.9040  -34.5090   25.6010 C.3     1  LIG  -0.0620   0.1435 
23    H7       2.2235  -33.7630   25.2820 H       1  LIG   0.0570   0.0000 
24    H8       2.4436  -35.1154   26.3371 H       1  LIG   0.0495   0.0000 
25    H9       3.7654  -34.0491   26.0108 H       1  LIG   0.0519   0.0000 
26    O1      -1.2400  -35.9060   23.9770 O.2     1  LIG  -0.6361  -0.5700 
27    C13      2.3440  -38.7570   21.0360 C.3     1  LIG   0.1354   0.0690 
28    H10      3.1238  -38.3754   20.4296 H       1  LIG   0.0981   0.1000 
29    C14      2.9380  -39.8900   21.8010 C.3     1  LIG  -0.1181  -0.2000 
30    H11      3.8890  -40.1268   21.3997 H       1  LIG   0.0732   0.1000 
31    H12      3.0430  -39.6129   22.8177 H       1  LIG   0.0789   0.1000 
32    C15      1.6390  -40.0610   21.0880 C.3     1  LIG  -0.1196  -0.2000 
33    H13      0.6832  -39.9283   21.5242 H       1  LIG   0.0807   0.1000 
34    H14      1.5292  -40.4423   20.1061 H       1  LIG   0.0733   0.1000 
@<TRIPOS>BOND
1     2     1     ar
2     3     2     1
3     4     2     ar
4     5     4     1
5     6     4     ar
6     7     6     ar
7     8     7     1
8     9     8     1
9     10    8     1
10    11    10    1
11    12    11    ar
12    13    12    1
13    14    12    ar
14    15    14    1
15    16    14    ar
16    17    16    1
17    18    16    ar
18    19    11    ar
19    19    18    ar
20    20    19    1
21    21    1     ar
22    21    7     ar
23    21    20    1
24    22    6     1
25    23    22    1
26    24    22    1
27    25    22    1
28    26    10    2
29    27    20    1
30    28    27    1
31    29    27    1
32    30    29    1
33    31    29    1
34    32    27    1
35    32    29    1
36    33    32    1
37    34    32    1
@<TRIPOS>SUBSTRUCTURE
1   LIG    1    
 
########## Name        : 1VRT.lig
########## Description : AM1BCC_CHARGES =  -0.0002 ORIGINAL_CHARGES =  -0.0000

@<TRIPOS>MOLECULE
1VRT.lig
34    37    1     0     0    
SMALL
USER_CHARGES
@<TRIPOS>ATOM
1     N1       4.0540  -36.9310   22.2210 N.ar    1  LIG  -0.6650  -0.6200 
2     C1       4.9660  -36.2380   22.9390 C.ar    1  LIG   0.3947   0.1600 
3     H1       6.0082  -36.2811   22.6707 H       1  LIG   0.0281   0.1500 
4     C2       4.6240  -35.4500   24.0360 C.ar    1  LIG  -0.2334  -0.1500 
5     H2       5.3884  -34.9151   24.5740 H       1  LIG   0.1480   0.1500 
6     C3       3.3050  -35.3690   24.4150 C.ar    1  LIG  -0.0698  -0.1435 
7     C4       2.3460  -36.0770   23.6860 C.ar    1  LIG  -0.0398   0.1170 
8     N2       0.9890  -36.0280   24.1030 N.am    1  LIG  -0.4596  -0.5470 
9     H3       0.7643  -35.9928   25.0860 H       1  LIG   0.3311   0.3700 
10    C5      -0.1450  -36.0180   23.4080 C.2     1  LIG   0.7361   0.5438 
11    C6      -0.1190  -36.0770   21.8860 C.ar    1  LIG  -0.2550   0.0862 
12    C7      -1.1230  -35.3990   21.1890 C.ar    1  LIG  -0.0321  -0.1500 
13    H4      -1.7552  -34.6955   21.7041 H       1  LIG   0.1623   0.1500 
14    C8      -1.2960  -35.6300   19.8690 C.ar    1  LIG  -0.2723  -0.1500 
15    H5      -2.0662  -35.1073   19.3273 H       1  LIG   0.1522   0.1500 
16    C9      -0.4670  -36.5450   19.2400 C.ar    1  LIG   0.4373   0.1600 
17    H6      -0.5947  -36.7554   18.1915 H       1  LIG   0.0280   0.1500 
18    N3       0.5220  -37.2120   19.8740 N.ar    1  LIG  -0.6893  -0.6200 
19    C10      0.7040  -36.9790   21.1800 C.ar    1  LIG   0.6480   0.4100 
20    N4       1.7670  -37.6730   21.8260 N.pl3   1  LIG  -0.6924  -0.3690 
21    C11      2.7540  -36.8570   22.5840 C.ar    1  LIG   0.5805   0.4100 
22    C12      2.9040  -34.5090   25.6010 C.3     1  LIG  -0.0620   0.1435 
23    H7       2.2235  -33.7630   25.2820 H       1  LIG   0.0570   0.0000 
24    H8       2.4436  -35.1154   26.3371 H       1  LIG   0.0495   0.0000 
25    H9       3.7654  -34.0491   26.0108 H       1  LIG   0.0519   0.0000 
26    O1      -1.2400  -35.9060   23.9770 O.2     1  LIG  -0.6361  -0.5700 
27    C13      2.3440  -38.7570   21.0360 C.3     1  LIG   0.1354   0.0690 
28    H10      3.1238  -38.3754   20.4296 H       1  LIG   0.0981   0.1000 
29    C14      2.9380  -39.8900   21.8010 C.3     1  LIG  -0.1181  -0.2000 
30    H11      3.8890  -40.1268   21.3997 H       1  LIG   0.0732   0.1000 
31    H12      3.0430  -39.6129   22.8177 H       1  LIG   0.0789   0.1000 
32    C15      1.6390  -40.0610   21.0880 C.3     1  LIG  -0.1196  -0.2000 
33    H13      0.6832  -39.9283   21.5242 H       1  LIG   0.0807   0.1000 
34    H14      1.5292  -40.4423   20.1061 H       1  LIG   0.0733   0.1000 
@<TRIPOS>BOND
1     2     1     ar
2     3     2     1
3     4     2     ar
4     5     4     1
5     6     4     ar
6     7     6     ar
7     8     7     1
8     9     8     1
9     10    8     1
10    11    10    1
11    12    11    ar
12    13    12    1
13    14    12    ar
14    15    14    1
15    16    14    ar
16    17    16    1
17    18    16    ar
18    19    11    ar
19    19    18    ar
20    20    19    1
21    21    1     ar
22    21    7     ar
23    21    20    1
24    22    6     1
25    23    22    1
26    24    22    1
27    25    22    1
28    26    10    2
29    27    20    1
30    28    27    1
31    29    27    1
32    30    29    1
33    31    29    1
34    32    27    1
35    32    29    1
36    33    32    1
37    34    32    1
@<TRIPOS>SUBSTRUCTURE
1   LIG    1    
 
########## Name        : 1VRT.lig
########## Description : AM1BCC_CHARGES =  -0.0002 ORIGINAL_CHARGES =  -0.0000

@<TRIPOS>MOLECULE
1VRT.lig
34    37    1     0     0    
SMALL
USER_CHARGES
@<TRIPOS>ATOM
1     N1       4.0540  -36.9310   22.2210 N.ar    1  LIG  -0.6650  -0.6200 
2     C1       4.9660  -36.2380   22.9390 C.ar    1  LIG   0.3947   0.1600 
3     H1       6.0082  -36.2811   22.6707 H       1  LIG   0.0281   0.1500 
4     C2       4.6240  -35.4500   24.0360 C.ar    1  LIG  -0.2334  -0.1500 
5     H2       5.3884  -34.9151   24.5740 H       1  LIG   0.1480   0.1500 
6     C3       3.3050  -35.3690   24.4150 C.ar    1  LIG  -0.0698  -0.1435 
7     C4       2.3460  -36.0770   23.6860 C.ar    1  LIG  -0.0398   0.1170 
8     N2       0.9890  -36.0280   24.1030 N.am    1  LIG  -0.4596  -0.5470 
9     H3       0.7643  -35.9928   25.0860 H       1  LIG   0.3311   0.3700 
10    C5      -0.1450  -36.0180   23.4080 C.2     1  LIG   0.7361   0.5438 
11    C6      -0.1190  -36.0770   21.8860 C.ar    1  LIG  -0.2550   0.0862 
12    C7      -1.1230  -35.3990   21.1890 C.ar    1  LIG  -0.0321  -0.1500 
13    H4      -1.7552  -34.6955   21.7041 H       1  LIG   0.1623   0.1500 
14    C8      -1.2960  -35.6300   19.8690 C.ar    1  LIG  -0.2723  -0.1500 
15    H5      -2.0662  -35.1073   19.3273 H       1  LIG   0.1522   0.1500 
16    C9      -0.4670  -36.5450   19.2400 C.ar    1  LIG   0.4373   0.1600 
17    H6      -0.5947  -36.7554   18.1915 H       1  LIG   0.0280   0.1500 
18    N3       0.5220  -37.2120   19.8740 N.ar    1  LIG  -0.6893  -0.6200 
19    C10      0.7040  -36.9790   21.1800 C.ar    1  LIG   0.6480   0.4100 
20    N4       1.7670  -37.6730   21.8260 N.pl3   1  LIG  -0.6924  -0.3690 
21    C11      2.7540  -36.8570   22.5840 C.ar    1  LIG   0.5805   0.4100 
22    C12      2.9040  -34.5090   25.6010 C.3     1  LIG  -0.0620   0.1435 
23    H7       2.2235  -33.7630   25.2820 H       1  LIG   0.0570   0.0000 
24    H8       2.4436  -35.1154   26.3371 H       1  LIG   0.0495   0.0000 
25    H9       3.7654  -34.0491   26.0108 H       1  LIG   0.0519   0.0000 
26    O1      -1.2400  -35.9060   23.9770 O.2     1  LIG  -0.6361  -0.5700 
27    C13      2.3440  -38.7570   21.0360 C.3     1  LIG   0.1354   0.0690 
28    H10      3.1238  -38.3754   20.4296 H       1  LIG   0.0981   0.1000 
29    C14      2.9380  -39.8900   21.8010 C.3     1  LIG  -0.1181  -0.2000 
30    H11      3.8890  -40.1268   21.3997 H       1  LIG   0.0732   0.1000 
31    H12      3.0430  -39.6129   22.8177 H       1  LIG   0.0789   0.1000 
32    C15      1.6390  -40.0610   21.0880 C.3     1  LIG  -0.1196  -0.2000 
33    H13      0.6832  -39.9283   21.5242 H       1  LIG   0.0807   0.1000 
34    H14      1.5292  -40.4423   20.1061 H       1  LIG   0.0733   0.1000 
@<TRIPOS>BOND
1     2     1     ar
2     3     2     1
3     4     2     ar
4     5     4     1
5     6     4     ar
6     7     6     ar
7     8     7     1
8     9     8     1
9     10    8     1
10    11    10    1
11    12    11    ar
12    13    12    1
13    14    12    ar
14    15    14    1
15    16    14    ar
16    17    16    1
17    18    16    ar
18    19    11    ar
19    19    18    ar
20    20    19    1
21    21    1     ar
22    21    7     ar
23    21    20    1
24    22    6     1
25    23    22    1
26    24    22    1
27    25    22    1
28    26    10    2
29    27    20    1
30    28    27    1
31    29    27    1
32    30    29    1
33    31    29    1
34    32    27    1
35    32    29    1
36    33    32    1
37    34    32    1
@<TRIPOS>SUBSTRUCTURE
1   LIG    1    
 
########## Name        : 1VRT.lig
########## Description : AM1BCC_CHARGES =  -0.0002 ORIGINAL_CHARGES =  -0.0000

@<TRIPOS>MOLECULE
1VRT.lig
34    37    1     0     0    
SMALL
USER_CHARGES
@<TRIPOS>ATOM
1     N1       4.0540  -36.9310   22.2210 N.ar    1  LIG  -0.6650  -0.6200 
2     C1       4.9660  -36.2380   22.9390 C.ar    1  LIG   0.3947   0.1600 
3     H1       6.0082  -36.2811   22.6707 H       1  LIG   0.0281   0.1500 
4     C2       4.6240  -35.4500   24.0360 C.ar    1  LIG  -0.2334  -0.1500 
5     H2       5.3884  -34.9151   24.5740 H       1  LIG   0.1480   0.1500 
6     C3       3.3050  -35.3690   24.4150 C.ar    1  LIG  -0.0698  -0.1435 
7     C4       2.3460  -36.0770   23.6860 C.ar    1  LIG  -0.0398   0.1170 
8     N2       0.9890  -36.0280   24.1030 N.am    1  LIG  -0.4596  -0.5470 
9     H3       0.7643  -35.9928   25.0860 H       1  LIG   0.3311   0.3700 
10    C5      -0.1450  -36.0180   23.4080 C.2     1  LIG   0.7361   0.5438 
11    C6      -0.1190  -36.0770   21.8860 C.ar    1  LIG  -0.2550   0.0862 
12    C7      -1.1230  -35.3990   21.1890 C.ar    1  LIG  -0.0321  -0.1500 
13    H4      -1.7552  -34.6955   21.7041 H       1  LIG   0.1623   0.1500 
14    C8      -1.2960  -35.6300   19.8690 C.ar    1  LIG  -0.2723  -0.1500 
15    H5      -2.0662  -35.1073   19.3273 H       1  LIG   0.1522   0.1500 
16    C9      -0.4670  -36.5450   19.2400 C.ar    1  LIG   0.4373   0.1600 
17    H6      -0.5947  -36.7554   18.1915 H       1  LIG   0.0280   0.1500 
18    N3       0.5220  -37.2120   19.8740 N.ar    1  LIG  -0.6893  -0.6200 
19    C10      0.7040  -36.9790   21.1800 C.ar    1  LIG   0.6480   0.4100 
20    N4       1.7670  -37.6730   21.8260 N.pl3   1  LIG  -0.6924  -0.3690 
21    C11      2.7540  -36.8570   22.5840 C.ar    1  LIG   0.5805   0.4100 
22    C12      2.9040  -34.5090   25.6010 C.3     1  LIG  -0.0620   0.1435 
23    H7       2.2235  -33.7630   25.2820 H       1  LIG   0.0570   0.0000 
24    H8       2.4436  -35.1154   26.3371 H       1  LIG   0.0495   0.0000 
25    H9       3.7654  -34.0491   26.0108 H       1  LIG   0.0519   0.0000 
26    O1      -1.2400  -35.9060   23.9770 O.2     1  LIG  -0.6361  -0.5700 
27    C13      2.3440  -38.7570   21.0360 C.3     1  LIG   0.1354   0.0690 
28    H10      3.1238  -38.3754   20.4296 H       1  LIG   0.0981   0.1000 
29    C14      2.9380  -39.8900   21.8010 C.3     1  LIG  -0.1181  -0.2000 
30    H11      3.8890  -40.1268   21.3997 H       1  LIG   0.0732   0.1000 
31    H12      3.0430  -39.6129   22.8177 H       1  LIG   0.0789   0.1000 
32    C15      1.6390  -40.0610   21.0880 C.3     1  LIG  -0.1196  -0.2000 
33    H13      0.6832  -39.9283   21.5242 H       1  LIG   0.0807   0.1000 
34    H14      1.5292  -40.4423   20.1061 H       1  LIG   0.0733   0.1000 
@<TRIPOS>BOND
1     2     1     ar
2     3     2     1
3     4     2     ar
4     5     4     1
5     6     4     ar
6     7     6     ar
7     8     7     1
8     9     8     1
9     10    8     1
10    11    10    1
11    12    11    ar
12    13    12    1
13    14    12    ar
14    15    14    1
15    16    14    ar
16    17    16    1
17    18    16    ar
18    19    11    ar
19    19    18    ar
20    20    19    1
21    21    1     ar
22    21    7     ar
23    21    20    1
24    22    6     1
25    23    22    1
26    24    22    1
27    25    22    1
28    26    10    2
29    27    20    1
30    28    27    1
31    29    27    1
32    30    29    1
33    31    29    1
34    32    27    1
35    32    29    1
36    33    32    1
37    34    32    1
@<TRIPOS>SUBSTRUCTURE
1   LIG    1    
 
########## Name        : 1VRT.lig
########## Description : AM1BCC_CHARGES =  -0.0002 ORIGINAL_CHARGES =  -0.0000

@<TRIPOS>MOLECULE
1VRT.lig
34    37    1     0     0    
SMALL
USER_CHARGES
@<TRIPOS>ATOM
1     N1       4.0540  -36.9310   22.2210 N.ar    1  LIG  -0.6650  -0.6200 
2     C1       4.9660  -36.2380   22.9390 C.ar    1  LIG   0.3947   0.1600 
3     H1       6.0082  -36.2811   22.6707 H       1  LIG   0.0281   0.1500 
4     C2       4.6240  -35.4500   24.0360 C.ar    1  LIG  -0.2334  -0.1500 
5     H2       5.3884  -34.9151   24.5740 H       1  LIG   0.1480   0.1500 
6     C3       3.3050  -35.3690   24.4150 C.ar    1  LIG  -0.0698  -0.1435 
7     C4       2.3460  -36.0770   23.6860 C.ar    1  LIG  -0.0398   0.1170 
8     N2       0.9890  -36.0280   24.1030 N.am    1  LIG  -0.4596  -0.5470 
9     H3       0.7643  -35.9928   25.0860 H       1  LIG   0.3311   0.3700 
10    C5      -0.1450  -36.0180   23.4080 C.2     1  LIG   0.7361   0.5438 
11    C6      -0.1190  -36.0770   21.8860 C.ar    1  LIG  -0.2550   0.0862 
12    C7      -1.1230  -35.3990   21.1890 C.ar    1  LIG  -0.0321  -0.1500 
13    H4      -1.7552  -34.6955   21.7041 H       1  LIG   0.1623   0.1500 
14    C8      -1.2960  -35.6300   19.8690 C.ar    1  LIG  -0.2723  -0.1500 
15    H5      -2.0662  -35.1073   19.3273 H       1  LIG   0.1522   0.1500 
16    C9      -0.4670  -36.5450   19.2400 C.ar    1  LIG   0.4373   0.1600 
17    H6      -0.5947  -36.7554   18.1915 H       1  LIG   0.0280   0.1500 
18    N3       0.5220  -37.2120   19.8740 N.ar    1  LIG  -0.6893  -0.6200 
19    C10      0.7040  -36.9790   21.1800 C.ar    1  LIG   0.6480   0.4100 
20    N4       1.7670  -37.6730   21.8260 N.pl3   1  LIG  -0.6924  -0.3690 
21    C11      2.7540  -36.8570   22.5840 C.ar    1  LIG   0.5805   0.4100 
22    C12      2.9040  -34.5090   25.6010 C.3     1  LIG  -0.0620   0.1435 
23    H7       2.2235  -33.7630   25.2820 H       1  LIG   0.0570   0.0000 
24    H8       2.4436  -35.1154   26.3371 H       1  LIG   0.0495   0.0000 
25    H9       3.7654  -34.0491   26.0108 H       1  LIG   0.0519   0.0000 
26    O1      -1.2400  -35.9060   23.9770 O.2     1  LIG  -0.6361  -0.5700 
27    C13      2.3440  -38.7570   21.0360 C.3     1  LIG   0.1354   0.0690 
28    H10      3.1238  -38.3754   20.4296 H       1  LIG   0.0981   0.1000 
29    C14      2.9380  -39.8900   21.8010 C.3     1  LIG  -0.1181  -0.2000 
30    H11      3.8890  -40.1268   21.3997 H       1  LIG   0.0732   0.1000 
31    H12      3.0430  -39.6129   22.8177 H       1  LIG   0.0789   0.1000 
32    C15      1.6390  -40.0610   21.0880 C.3     1  LIG  -0.1196  -0.2000 
33    H13      0.6832  -39.9283   21.5242 H       1  LIG   0.0807   0.1000 
34    H14      1.5292  -40.4423   20.1061 H       1  LIG   0.0733   0.1000 
@<TRIPOS>BOND
1     2     1     ar
2     3     2     1
3     4     2     ar
4     5     4     1
5     6     4     ar
6     7     6     ar
7     8     7     1
8     9     8     1
9     10    8     1
10    11    10    1
11    12    11    ar
12    13    12    1
13    14    12    ar
14    15    14    1
15    16    14    ar
16    17    16    1
17    18    16    ar
18    19    11    ar
19    19    18    ar
20    20    19    1
21    21    1     ar
22    21    7     ar
23    21    20    1
24    22    6     1
25    23    22    1
26    24    22    1
27    25    22    1
28    26    10    2
29    27    20    1
30    28    27    1
31    29    27    1
32    30    29    1
33    31    29    1
34    32    27    1
35    32    29    1
36    33    32    1
37    34    32    1
@<TRIPOS>SUBSTRUCTURE
1   LIG    1    
 
########## Name        : 1VRT.lig
########## Description : AM1BCC_CHARGES =  -0.0002 ORIGINAL_CHARGES =  -0.0000

@<TRIPOS>MOLECULE
1VRT.lig
34    37    1     0     0    
SMALL
USER_CHARGES
@<TRIPOS>ATOM
1     N1       4.0540  -36.9310   22.2210 N.ar    1  LIG  -0.6650  -0.6200 
2     C1       4.9660  -36.2380   22.9390 C.ar    1  LIG   0.3947   0.1600 
3     H1       6.0082  -36.2811   22.6707 H       1  LIG   0.0281   0.1500 
4     C2       4.6240  -35.4500   24.0360 C.ar    1  LIG  -0.2334  -0.1500 
5     H2       5.3884  -34.9151   24.5740 H       1  LIG   0.1480   0.1500 
6     C3       3.3050  -35.3690   24.4150 C.ar    1  LIG  -0.0698  -0.1435 
7     C4       2.3460  -36.0770   23.6860 C.ar    1  LIG  -0.0398   0.1170 
8     N2       0.9890  -36.0280   24.1030 N.am    1  LIG  -0.4596  -0.5470 
9     H3       0.7643  -35.9928   25.0860 H       1  LIG   0.3311   0.3700 
10    C5      -0.1450  -36.0180   23.4080 C.2     1  LIG   0.7361   0.5438 
11    C6      -0.1190  -36.0770   21.8860 C.ar    1  LIG  -0.2550   0.0862 
12    C7      -1.1230  -35.3990   21.1890 C.ar    1  LIG  -0.0321  -0.1500 
13    H4      -1.7552  -34.6955   21.7041 H       1  LIG   0.1623   0.1500 
14    C8      -1.2960  -35.6300   19.8690 C.ar    1  LIG  -0.2723  -0.1500 
15    H5      -2.0662  -35.1073   19.3273 H       1  LIG   0.1522   0.1500 
16    C9      -0.4670  -36.5450   19.2400 C.ar    1  LIG   0.4373   0.1600 
17    H6      -0.5947  -36.7554   18.1915 H       1  LIG   0.0280   0.1500 
18    N3       0.5220  -37.2120   19.8740 N.ar    1  LIG  -0.6893  -0.6200 
19    C10      0.7040  -36.9790   21.1800 C.ar    1  LIG   0.6480   0.4100 
20    N4       1.7670  -37.6730   21.8260 N.pl3   1  LIG  -0.6924  -0.3690 
21    C11      2.7540  -36.8570   22.5840 C.ar    1  LIG   0.5805   0.4100 
22    C12      2.9040  -34.5090   25.6010 C.3     1  LIG  -0.0620   0.1435 
23    H7       2.2235  -33.7630   25.2820 H       1  LIG   0.0570   0.0000 
24    H8       2.4436  -35.1154   26.3371 H       1  LIG   0.0495   0.0000 
25    H9       3.7654  -34.0491   26.0108 H       1  LIG   0.0519   0.0000 
26    O1      -1.2400  -35.9060   23.9770 O.2     1  LIG  -0.6361  -0.5700 
27    C13      2.3440  -38.7570   21.0360 C.3     1  LIG   0.1354   0.0690 
28    H10      3.1238  -38.3754   20.4296 H       1  LIG   0.0981   0.1000 
29    C14      2.9380  -39.8900   21.8010 C.3     1  LIG  -0.1181  -0.2000 
30    H11      3.8890  -40.1268   21.3997 H       1  LIG   0.0732   0.1000 
31    H12      3.0430  -39.6129   22.8177 H       1  LIG   0.0789   0.1000 
32    C15      1.6390  -40.0610   21.0880 C.3     1  LIG  -0.1196  -0.2000 
33    H13      0.6832  -39.9283   21.5242 H       1  LIG   0.0807   0.1000 
34    H14      1.5292  -40.4423   20.1061 H       1  LIG   0.0733   0.1000 
@<TRIPOS>BOND
1     2     1     ar
2     3     2     1
3     4     2     ar
4     5     4     1
5     6     4     ar
6     7     6     ar
7     8     7     1
8     9     8     1
9     10    8     1
10    11    10    1
11    12    11    ar
12    13    12    1
13    14    12    ar
14    15    14    1
15    16    14    ar
16    17    16    1
17    18    16    ar
18    19    11    ar
19    19    18    ar
20    20    19    1
21    21    1     ar
22    21    7     ar
23    21    20    1
24    22    6     1
25    23    22    1
26    24    22    1
27    25    22    1
28    26    10    2
29    27    20    1
30    28    27    1
31    29    27    1
32    30    29    1
33    31    29    1
34    32    27    1
35    32    29    1
36    33    32    1
37    34    32    1
@<TRIPOS>SUBSTRUCTURE
1   LIG    1    
 
########## Name        : 1VRT.lig
########## Description : AM1BCC_CHARGES =  -0.0002 ORIGINAL_CHARGES =  -0.0000

@<TRIPOS>MOLECULE
1VRT.lig
34    37    1     0     0    
SMALL
USER_CHARGES
@<TRIPOS>ATOM
1     N1       4.0540  -36.9310   22.2210 N.ar    1  LIG  -0.6650  -0.6200 
2     C1       4.9660  -36.2380   22.9390 C.ar    1  LIG   0.3947   0.1600 
3     H1       6.0082  -36.2811   22.6707 H       1  LIG   0.0281   0.1500 
4     C2       4.6240  -35.4500   24.0360 C.ar    1  LIG  -0.2334  -0.1500 
5     H2       5.3884  -34.9151   24.5740 H       1  LIG   0.1480   0.1500 
6     C3       3.3050  -35.3690   24.4150 C.ar    1  LIG  -0.0698  -0.1435 
7     C4       2.3460  -36.0770   23.6860 C.ar    1  LIG  -0.0398   0.1170 
8     N2       0.9890  -36.0280   24.1030 N.am    1  LIG  -0.4596  -0.5470 
9     H3       0.7643  -35.9928   25.0860 H       1  LIG   0.3311   0.3700 
10    C5      -0.1450  -36.0180   23.4080 C.2     1  LIG   0.7361   0.5438 
11    C6      -0.1190  -36.0770   21.8860 C.ar    1  LIG  -0.2550   0.0862 
12    C7      -1.1230  -35.3990   21.1890 C.ar    1  LIG  -0.0321  -0.1500 
13    H4      -1.7552  -34.6955   21.7041 H       1  LIG   0.1623   0.1500 
14    C8      -1.2960  -35.6300   19.8690 C.ar    1  LIG  -0.2723  -0.1500 
15    H5      -2.0662  -35.1073   19.3273 H       1  LIG   0.1522   0.1500 
16    C9      -0.4670  -36.5450   19.2400 C.ar    1  LIG   0.4373   0.1600 
17    H6      -0.5947  -36.7554   18.1915 H       1  LIG   0.0280   0.1500 
18    N3       0.5220  -37.2120   19.8740 N.ar    1  LIG  -0.6893  -0.6200 
19    C10      0.7040  -36.9790   21.1800 C.ar    1  LIG   0.6480   0.4100 
20    N4       1.7670  -37.6730   21.8260 N.pl3   1  LIG  -0.6924  -0.3690 
21    C11      2.7540  -36.8570   22.5840 C.ar    1  LIG   0.5805   0.4100 
22    C12      2.9040  -34.5090   25.6010 C.3     1  LIG  -0.0620   0.1435 
23    H7       2.2235  -33.7630   25.2820 H       1  LIG   0.0570   0.0000 
24    H8       2.4436  -35.1154   26.3371 H       1  LIG   0.0495   0.0000 
25    H9       3.7654  -34.0491   26.0108 H       1  LIG   0.0519   0.0000 
26    O1      -1.2400  -35.9060   23.9770 O.2     1  LIG  -0.6361  -0.5700 
27    C13      2.3440  -38.7570   21.0360 C.3     1  LIG   0.1354   0.0690 
28    H10      3.1238  -38.3754   20.4296 H       1  LIG   0.0981   0.1000 
29    C14      2.9380  -39.8900   21.8010 C.3     1  LIG  -0.1181  -0.2000 
30    H11      3.8890  -40.1268   21.3997 H       1  LIG   0.0732   0.1000 
31    H12      3.0430  -39.6129   22.8177 H       1  LIG   0.0789   0.1000 
32    C15      1.6390  -40.0610   21.0880 C.3     1  LIG  -0.1196  -0.2000 
33    H13      0.6832  -39.9283   21.5242 H       1  LIG   0.0807   0.1000 
34    H14      1.5292  -40.4423   20.1061 H       1  LIG   0.0733   0.1000 
@<TRIPOS>BOND
1     2     1     ar
2     3     2     1
3     4     2     ar
4     5     4     1
5     6     4     ar
6     7     6     ar
7     8     7     1
8     9     8     1
9     10    8     1
10    11    10    1
11    12    11    ar
12    13    12    1
13    14    12    ar
14    15    14    1
15    16    14    ar
16    17    16    1
17    18    16    ar
18    19    11    ar
19    19    18    ar
20    20    19    1
21    21    1     ar
22    21    7     ar
23    21    20    1
24    22    6     1
25    23    22    1
26    24    22    1
27    25    22    1
28    26    10    2
29    27    20    1
30    28    27    1
31    29    27    1
32    30    29    1
33    31    29    1
34    32    27    1
35    32    29    1
36    33    32    1
37    34    32    1
@<TRIPOS>SUBSTRUCTURE
1   LIG    1    
 
########## Name        : 1VRT.lig
########## Description : AM1BCC_CHARGES =  -0.0002 ORIGINAL_CHARGES =  -0.0000

@<TRIPOS>MOLECULE
1VRT.lig
34    37    1     0     0    
SMALL
USER_CHARGES
@<TRIPOS>ATOM
1     N1       4.0540  -36.9310   22.2210 N.ar    1  LIG  -0.6650  -0.6200 
2     C1       4.9660  -36.2380   22.9390 C.ar    1  LIG   0.3947   0.1600 
3     H1       6.0082  -36.2811   22.6707 H       1  LIG   0.0281   0.1500 
4     C2       4.6240  -35.4500   24.0360 C.ar    1  LIG  -0.2334  -0.1500 
5     H2       5.3884  -34.9151   24.5740 H       1  LIG   0.1480   0.1500 
6     C3       3.3050  -35.3690   24.4150 C.ar    1  LIG  -0.0698  -0.1435 
7     C4       2.3460  -36.0770   23.6860 C.ar    1  LIG  -0.0398   0.1170 
8     N2       0.9890  -36.0280   24.1030 N.am    1  LIG  -0.4596  -0.5470 
9     H3       0.7643  -35.9928   25.0860 H       1  LIG   0.3311   0.3700 
10    C5      -0.1450  -36.0180   23.4080 C.2     1  LIG   0.7361   0.5438 
11    C6      -0.1190  -36.0770   21.8860 C.ar    1  LIG  -0.2550   0.0862 
12    C7      -1.1230  -35.3990   21.1890 C.ar    1  LIG  -0.0321  -0.1500 
13    H4      -1.7552  -34.6955   21.7041 H       1  LIG   0.1623   0.1500 
14    C8      -1.2960  -35.6300   19.8690 C.ar    1  LIG  -0.2723  -0.1500 
15    H5      -2.0662  -35.1073   19.3273 H       1  LIG   0.1522   0.1500 
16    C9      -0.4670  -36.5450   19.2400 C.ar    1  LIG   0.4373   0.1600 
17    H6      -0.5947  -36.7554   18.1915 H       1  LIG   0.0280   0.1500 
18    N3       0.5220  -37.2120   19.8740 N.ar    1  LIG  -0.6893  -0.6200 
19    C10      0.7040  -36.9790   21.1800 C.ar    1  LIG   0.6480   0.4100 
20    N4       1.7670  -37.6730   21.8260 N.pl3   1  LIG  -0.6924  -0.3690 
21    C11      2.7540  -36.8570   22.5840 C.ar    1  LIG   0.5805   0.4100 
22    C12      2.9040  -34.5090   25.6010 C.3     1  LIG  -0.0620   0.1435 
23    H7       2.2235  -33.7630   25.2820 H       1  LIG   0.0570   0.0000 
24    H8       2.4436  -35.1154   26.3371 H       1  LIG   0.0495   0.0000 
25    H9       3.7654  -34.0491   26.0108 H       1  LIG   0.0519   0.0000 
26    O1      -1.2400  -35.9060   23.9770 O.2     1  LIG  -0.6361  -0.5700 
27    C13      2.3440  -38.7570   21.0360 C.3     1  LIG   0.1354   0.0690 
28    H10      3.1238  -38.3754   20.4296 H       1  LIG   0.0981   0.1000 
29    C14      2.9380  -39.8900   21.8010 C.3     1  LIG  -0.1181  -0.2000 
30    H11      3.8890  -40.1268   21.3997 H       1  LIG   0.0732   0.1000 
31    H12      3.0430  -39.6129   22.8177 H       1  LIG   0.0789   0.1000 
32    C15      1.6390  -40.0610   21.0880 C.3     1  LIG  -0.1196  -0.2000 
33    H13      0.6832  -39.9283   21.5242 H       1  LIG   0.0807   0.1000 
34    H14      1.5292  -40.4423   20.1061 H       1  LIG   0.0733   0.1000 
@<TRIPOS>BOND
1     2     1     ar
2     3     2     1
3     4     2     ar
4     5     4     1
5     6     4     ar
6     7     6     ar
7     8     7     1
8     9     8     1
9     10    8     1
10    11    10    1
11    12    11    ar
12    13    12    1
13    14    12    ar
14    15    14    1
15    16    14    ar
16    17    16    1
17    18    16    ar
18    19    11    ar
19    19    18    ar
20    20    19    1
21    21    1     ar
22    21    7     ar
23    21    20    1
24    22    6     1
25    23    22    1
26    24    22    1
27    25    22    1
28    26    10    2
29    27    20    1
30    28    27    1
31    29    27    1
32    30    29    1
33    31    29    1
34    32    27    1
35    32    29    1
36    33    32    1
37    34    32    1
@<TRIPOS>SUBSTRUCTURE
1   LIG    1    
 
########## Name        : 1VRT.lig
########## Description : AM1BCC_CHARGES =  -0.0002 ORIGINAL_CHARGES =  -0.0000

@<TRIPOS>MOLECULE
1VRT.lig
34    37    1     0     0    
SMALL
USER_CHARGES
@<TRIPOS>ATOM
1     N1       4.0540  -36.9310   22.2210 N.ar    1  LIG  -0.6650  -0.6200 
2     C1       4.9660  -36.2380   22.9390 C.ar    1  LIG   0.3947   0.1600 
3     H1       6.0082  -36.2811   22.6707 H       1  LIG   0.0281   0.1500 
4     C2       4.6240  -35.4500   24.0360 C.ar    1  LIG  -0.2334  -0.1500 
5     H2       5.3884  -34.9151   24.5740 H       1  LIG   0.1480   0.1500 
6     C3       3.3050  -35.3690   24.4150 C.ar    1  LIG  -0.0698  -0.1435 
7     C4       2.3460  -36.0770   23.6860 C.ar    1  LIG  -0.0398   0.1170 
8     N2       0.9890  -36.0280   24.1030 N.am    1  LIG  -0.4596  -0.5470 
9     H3       0.7643  -35.9928   25.0860 H       1  LIG   0.3311   0.3700 
10    C5      -0.1450  -36.0180   23.4080 C.2     1  LIG   0.7361   0.5438 
11    C6      -0.1190  -36.0770   21.8860 C.ar    1  LIG  -0.2550   0.0862 
12    C7      -1.1230  -35.3990   21.1890 C.ar    1  LIG  -0.0321  -0.1500 
13    H4      -1.7552  -34.6955   21.7041 H       1  LIG   0.1623   0.1500 
14    C8      -1.2960  -35.6300   19.8690 C.ar    1  LIG  -0.2723  -0.1500 
15    H5      -2.0662  -35.1073   19.3273 H       1  LIG   0.1522   0.1500 
16    C9      -0.4670  -36.5450   19.2400 C.ar    1  LIG   0.4373   0.1600 
17    H6      -0.5947  -36.7554   18.1915 H       1  LIG   0.0280   0.1500 
18    N3       0.5220  -37.2120   19.8740 N.ar    1  LIG  -0.6893  -0.6200 
19    C10      0.7040  -36.9790   21.1800 C.ar    1  LIG   0.6480   0.4100 
20    N4       1.7670  -37.6730   21.8260 N.pl3   1  LIG  -0.6924  -0.3690 
21    C11      2.7540  -36.8570   22.5840 C.ar    1  LIG   0.5805   0.4100 
22    C12      2.9040  -34.5090   25.6010 C.3     1  LIG  -0.0620   0.1435 
23    H7       2.2235  -33.7630   25.2820 H       1  LIG   0.0570   0.0000 
24    H8       2.4436  -35.1154   26.3371 H       1  LIG   0.0495   0.0000 
25    H9       3.7654  -34.0491   26.0108 H       1  LIG   0.0519   0.0000 
26    O1      -1.2400  -35.9060   23.9770 O.2     1  LIG  -0.6361  -0.5700 
27    C13      2.3440  -38.7570   21.0360 C.3     1  LIG   0.1354   0.0690 
28    H10      3.1238  -38.3754   20.4296 H       1  LIG   0.0981   0.1000 
29    C14      2.9380  -39.8900   21.8010 C.3     1  LIG  -0.1181  -0.2000 
30    H11      3.8890  -40.1268   21.3997 H       1  LIG   0.0732   0.1000 
31    H12      3.0430  -39.6129   22.8177 H       1  LIG   0.0789   0.1000 
32    C15      1.6390  -40.0610   21.0880 C.3     1  LIG  -0.1196  -0.2000 
33    H13      0.6832  -39.9283   21.5242 H       1  LIG   0.0807   0.1000 
34    H14      1.5292  -40.4423   20.1061 H       1  LIG   0.0733   0.1000 
@<TRIPOS>BOND
1     2     1     ar
2     3     2     1
3     4     2     ar
4     5     4     1
5     6     4     ar
6     7     6     ar
7     8     7     1
8     9     8     1
9     10    8     1
10    11    10    1
11    12    11    ar
12    13    12    1
13    14    12    ar
14    15    14    1
15    16    14    ar
16    17    16    1
17    18    16    ar
18    19    11    ar
19    19    18    ar
20    20    19    1
21    21    1     ar
22    21    7     ar
23    21    20    1
24    22    6     1
25    23    22    1
26    24    22    1
27    25    22    1
28    26    10    2
29    27    20    1
30    28    27    1
31    29    27    1
32    30    29    1
33    31    29    1
34    32    27    1
35    32    29    1
36    33    32    1
37    34    32    1
@<TRIPOS>SUBSTRUCTURE
1   LIG    1    
 
########## Name        : 1VRT.lig
########## Description : AM1BCC_CHARGES =  -0.0002 ORIGINAL_CHARGES =  -0.0000

@<TRIPOS>MOLECULE
1VRT.lig
34    37    1     0     0    
SMALL
USER_CHARGES
@<TRIPOS>ATOM
1     N1       4.0540  -36.9310   22.2210 N.ar    1  LIG  -0.6650  -0.6200 
2     C1       4.9660  -36.2380   22.9390 C.ar    1  LIG   0.3947   0.1600 
3     H1       6.0082  -36.2811   22.6707 H       1  LIG   0.0281   0.1500 
4     C2       4.6240  -35.4500   24.0360 C.ar    1  LIG  -0.2334  -0.1500 
5     H2       5.3884  -34.9151   24.5740 H       1  LIG   0.1480   0.1500 
6     C3       3.3050  -35.3690   24.4150 C.ar    1  LIG  -0.0698  -0.1435 
7     C4       2.3460  -36.0770   23.6860 C.ar    1  LIG  -0.0398   0.1170 
8     N2       0.9890  -36.0280   24.1030 N.am    1  LIG  -0.4596  -0.5470 
9     H3       0.7643  -35.9928   25.0860 H       1  LIG   0.3311   0.3700 
10    C5      -0.1450  -36.0180   23.4080 C.2     1  LIG   0.7361   0.5438 
11    C6      -0.1190  -36.0770   21.8860 C.ar    1  LIG  -0.2550   0.0862 
12    C7      -1.1230  -35.3990   21.1890 C.ar    1  LIG  -0.0321  -0.1500 
13    H4      -1.7552  -34.6955   21.7041 H       1  LIG   0.1623   0.1500 
14    C8      -1.2960  -35.6300   19.8690 C.ar    1  LIG  -0.2723  -0.1500 
15    H5      -2.0662  -35.1073   19.3273 H       1  LIG   0.1522   0.1500 
16    C9      -0.4670  -36.5450   19.2400 C.ar    1  LIG   0.4373   0.1600 
17    H6      -0.5947  -36.7554   18.1915 H       1  LIG   0.0280   0.1500 
18    N3       0.5220  -37.2120   19.8740 N.ar    1  LIG  -0.6893  -0.6200 
19    C10      0.7040  -36.9790   21.1800 C.ar    1  LIG   0.6480   0.4100 
20    N4       1.7670  -37.6730   21.8260 N.pl3   1  LIG  -0.6924  -0.3690 
21    C11      2.7540  -36.8570   22.5840 C.ar    1  LIG   0.5805   0.4100 
22    C12      2.9040  -34.5090   25.6010 C.3     1  LIG  -0.0620   0.1435 
23    H7       2.2235  -33.7630   25.2820 H       1  LIG   0.0570   0.0000 
24    H8       2.4436  -35.1154   26.3371 H       1  LIG   0.0495   0.0000 
25    H9       3.7654  -34.0491   26.0108 H       1  LIG   0.0519   0.0000 
26    O1      -1.2400  -35.9060   23.9770 O.2     1  LIG  -0.6361  -0.5700 
27    C13      2.3440  -38.7570   21.0360 C.3     1  LIG   0.1354   0.0690 
28    H10      3.1238  -38.3754   20.4296 H       1  LIG   0.0981   0.1000 
29    C14      2.9380  -39.8900   21.8010 C.3     1  LIG  -0.1181  -0.2000 
30    H11      3.8890  -40.1268   21.3997 H       1  LIG   0.0732   0.1000 
31    H12      3.0430  -39.6129   22.8177 H       1  LIG   0.0789   0.1000 
32    C15      1.6390  -40.0610   21.0880 C.3     1  LIG  -0.1196  -0.2000 
33    H13      0.6832  -39.9283   21.5242 H       1  LIG   0.0807   0.1000 
34    H14      1.5292  -40.4423   20.1061 H       1  LIG   0.0733   0.1000 
@<TRIPOS>BOND
1     2     1     ar
2     3     2     1
3     4     2     ar
4     5     4     1
5     6     4     ar
6     7     6     ar
7     8     7     1
8     9     8     1
9     10    8     1
10    11    10    1
11    12    11    ar
12    13    12    1
13    14    12    ar
14    15    14    1
15    16    14    ar
16    17    16    1
17    18    16    ar
18    19    11    ar
19    19    18    ar
20    20    19    1
21    21    1     ar
22    21    7     ar
23    21    20    1
24    22    6     1
25    23    22    1
26    24    22    1
27    25    22    1
28    26    10    2
29    27    20    1
30    28    27    1
31    29    27    1
32    30    29    1
33    31    29    1
34    32    27    1
35    32    29    1
36    33    32    1
37    34    32    1
@<TRIPOS>SUBSTRUCTURE
1   LIG    1    
 
########## Name        : 1VRT.lig
########## Description : AM1BCC_CHARGES =  -0.0002 ORIGINAL_CHARGES =  -0.0000

@<TRIPOS>MOLECULE
1VRT.lig
34    37    1     0     0    
SMALL
USER_CHARGES
@<TRIPOS>ATOM
1     N1       4.0540  -36.9310   22.2210 N.ar    1  LIG  -0.6650  -0.6200 
2     C1       4.9660  -36.2380   22.9390 C.ar    1  LIG   0.3947   0.1600 
3     H1       6.0082  -36.2811   22.6707 H       1  LIG   0.0281   0.1500 
4     C2       4.6240  -35.4500   24.0360 C.ar    1  LIG  -0.2334  -0.1500 
5     H2       5.3884  -34.9151   24.5740 H       1  LIG   0.1480   0.1500 
6     C3       3.3050  -35.3690   24.4150 C.ar    1  LIG  -0.0698  -0.1435 
7     C4       2.3460  -36.0770   23.6860 C.ar    1  LIG  -0.0398   0.1170 
8     N2       0.9890  -36.0280   24.1030 N.am    1  LIG  -0.4596  -0.5470 
9     H3       0.7643  -35.9928   25.0860 H       1  LIG   0.3311   0.3700 
10    C5      -0.1450  -36.0180   23.4080 C.2     1  LIG   0.7361   0.5438 
11    C6      -0.1190  -36.0770   21.8860 C.ar    1  LIG  -0.2550   0.0862 
12    C7      -1.1230  -35.3990   21.1890 C.ar    1  LIG  -0.0321  -0.1500 
13    H4      -1.7552  -34.6955   21.7041 H       1  LIG   0.1623   0.1500 
14    C8      -1.2960  -35.6300   19.8690 C.ar    1  LIG  -0.2723  -0.1500 
15    H5      -2.0662  -35.1073   19.3273 H       1  LIG   0.1522   0.1500 
16    C9      -0.4670  -36.5450   19.2400 C.ar    1  LIG   0.4373   0.1600 
17    H6      -0.5947  -36.7554   18.1915 H       1  LIG   0.0280   0.1500 
18    N3       0.5220  -37.2120   19.8740 N.ar    1  LIG  -0.6893  -0.6200 
19    C10      0.7040  -36.9790   21.1800 C.ar    1  LIG   0.6480   0.4100 
20    N4       1.7670  -37.6730   21.8260 N.pl3   1  LIG  -0.6924  -0.3690 
21    C11      2.7540  -36.8570   22.5840 C.ar    1  LIG   0.5805   0.4100 
22    C12      2.9040  -34.5090   25.6010 C.3     1  LIG  -0.0620   0.1435 
23    H7       2.2235  -33.7630   25.2820 H       1  LIG   0.0570   0.0000 
24    H8       2.4436  -35.1154   26.3371 H       1  LIG   0.0495   0.0000 
25    H9       3.7654  -34.0491   26.0108 H       1  LIG   0.0519   0.0000 
26    O1      -1.2400  -35.9060   23.9770 O.2     1  LIG  -0.6361  -0.5700 
27    C13      2.3440  -38.7570   21.0360 C.3     1  LIG   0.1354   0.0690 
28    H10      3.1238  -38.3754   20.4296 H       1  LIG   0.0981   0.1000 
29    C14      2.9380  -39.8900   21.8010 C.3     1  LIG  -0.1181  -0.2000 
30    H11      3.8890  -40.1268   21.3997 H       1  LIG   0.0732   0.1000 
31    H12      3.0430  -39.6129   22.8177 H       1  LIG   0.0789   0.1000 
32    C15      1.6390  -40.0610   21.0880 C.3     1  LIG  -0.1196  -0.2000 
33    H13      0.6832  -39.9283   21.5242 H       1  LIG   0.0807   0.1000 
34    H14      1.5292  -40.4423   20.1061 H       1  LIG   0.0733   0.1000 
@<TRIPOS>BOND
1     2     1     ar
2     3     2     1
3     4     2     ar
4     5     4     1
5     6     4     ar
6     7     6     ar
7     8     7     1
8     9     8     1
9     10    8     1
10    11    10    1
11    12    11    ar
12    13    12    1
13    14    12    ar
14    15    14    1
15    16    14    ar
16    17    16    1
17    18    16    ar
18    19    11    ar
19    19    18    ar
20    20    19    1
21    21    1     ar
22    21    7     ar
23    21    20    1
24    22    6     1
25    23    22    1
26    24    22    1
27    25    22    1
28    26    10    2
29    27    20    1
30    28    27    1
31    29    27    1
32    30    29    1
33    31    29    1
34    32    27    1
35    32    29    1
36    33    32    1
37    34    32    1
@<TRIPOS>SUBSTRUCTURE
1   LIG    1    
 
########## Name        : 1VRT.lig
########## Description : AM1BCC_CHARGES =  -0.0002 ORIGINAL_CHARGES =  -0.0000

@<TRIPOS>MOLECULE
1VRT.lig
34    37    1     0     0    
SMALL
USER_CHARGES
@<TRIPOS>ATOM
1     N1       4.0540  -36.9310   22.2210 N.ar    1  LIG  -0.6650  -0.6200 
2     C1       4.9660  -36.2380   22.9390 C.ar    1  LIG   0.3947   0.1600 
3     H1       6.0082  -36.2811   22.6707 H       1  LIG   0.0281   0.1500 
4     C2       4.6240  -35.4500   24.0360 C.ar    1  LIG  -0.2334  -0.1500 
5     H2       5.3884  -34.9151   24.5740 H       1  LIG   0.1480   0.1500 
6     C3       3.3050  -35.3690   24.4150 C.ar    1  LIG  -0.0698  -0.1435 
7     C4       2.3460  -36.0770   23.6860 C.ar    1  LIG  -0.0398   0.1170 
8     N2       0.9890  -36.0280   24.1030 N.am    1  LIG  -0.4596  -0.5470 
9     H3       0.7643  -35.9928   25.0860 H       1  LIG   0.3311   0.3700 
10    C5      -0.1450  -36.0180   23.4080 C.2     1  LIG   0.7361   0.5438 
11    C6      -0.1190  -36.0770   21.8860 C.ar    1  LIG  -0.2550   0.0862 
12    C7      -1.1230  -35.3990   21.1890 C.ar    1  LIG  -0.0321  -0.1500 
13    H4      -1.7552  -34.6955   21.7041 H       1  LIG   0.1623   0.1500 
14    C8      -1.2960  -35.6300   19.8690 C.ar    1  LIG  -0.2723  -0.1500 
15    H5      -2.0662  -35.1073   19.3273 H       1  LIG   0.1522   0.1500 
16    C9      -0.4670  -36.5450   19.2400 C.ar    1  LIG   0.4373   0.1600 
17    H6      -0.5947  -36.7554   18.1915 H       1  LIG   0.0280   0.1500 
18    N3       0.5220  -37.2120   19.8740 N.ar    1  LIG  -0.6893  -0.6200 
19    C10      0.7040  -36.9790   21.1800 C.ar    1  LIG   0.6480   0.4100 
20    N4       1.7670  -37.6730   21.8260 N.pl3   1  LIG  -0.6924  -0.3690 
21    C11      2.7540  -36.8570   22.5840 C.ar    1  LIG   0.5805   0.4100 
22    C12      2.9040  -34.5090   25.6010 C.3     1  LIG  -0.0620   0.1435 
23    H7       2.2235  -33.7630   25.2820 H       1  LIG   0.0570   0.0000 
24    H8       2.4436  -35.1154   26.3371 H       1  LIG   0.0495   0.0000 
25    H9       3.7654  -34.0491   26.0108 H       1  LIG   0.0519   0.0000 
26    O1      -1.2400  -35.9060   23.9770 O.2     1  LIG  -0.6361  -0.5700 
27    C13      2.3440  -38.7570   21.0360 C.3     1  LIG   0.1354   0.0690 
28    H10      3.1238  -38.3754   20.4296 H       1  LIG   0.0981   0.1000 
29    C14      2.9380  -39.8900   21.8010 C.3     1  LIG  -0.1181  -0.2000 
30    H11      3.8890  -40.1268   21.3997 H       1  LIG   0.0732   0.1000 
31    H12      3.0430  -39.6129   22.8177 H       1  LIG   0.0789   0.1000 
32    C15      1.6390  -40.0610   21.0880 C.3     1  LIG  -0.1196  -0.2000 
33    H13      0.6832  -39.9283   21.5242 H       1  LIG   0.0807   0.1000 
34    H14      1.5292  -40.4423   20.1061 H       1  LIG   0.0733   0.1000 
@<TRIPOS>BOND
1     2     1     ar
2     3     2     1
3     4     2     ar
4     5     4     1
5     6     4     ar
6     7     6     ar
7     8     7     1
8     9     8     1
9     10    8     1
10    11    10    1
11    12    11    ar
12    13    12    1
13    14    12    ar
14    15    14    1
15    16    14    ar
16    17    16    1
17    18    16    ar
18    19    11    ar
19    19    18    ar
20    20    19    1
21    21    1     ar
22    21    7     ar
23    21    20    1
24    22    6     1
25    23    22    1
26    24    22    1
27    25    22    1
28    26    10    2
29    27    20    1
30    28    27    1
31    29    27    1
32    30    29    1
33    31    29    1
34    32    27    1
35    32    29    1
36    33    32    1
37    34    32    1
@<TRIPOS>SUBSTRUCTURE
1   LIG    1    
 
########## Name        : 1VRT.lig
########## Description : AM1BCC_CHARGES =  -0.0002 ORIGINAL_CHARGES =  -0.0000

@<TRIPOS>MOLECULE
1VRT.lig
34    37    1     0     0    
SMALL
USER_CHARGES
@<TRIPOS>ATOM
1     N1       4.0540  -36.9310   22.2210 N.ar    1  LIG  -0.6650  -0.6200 
2     C1       4.9660  -36.2380   22.9390 C.ar    1  LIG   0.3947   0.1600 
3     H1       6.0082  -36.2811   22.6707 H       1  LIG   0.0281   0.1500 
4     C2       4.6240  -35.4500   24.0360 C.ar    1  LIG  -0.2334  -0.1500 
5     H2       5.3884  -34.9151   24.5740 H       1  LIG   0.1480   0.1500 
6     C3       3.3050  -35.3690   24.4150 C.ar    1  LIG  -0.0698  -0.1435 
7     C4       2.3460  -36.0770   23.6860 C.ar    1  LIG  -0.0398   0.1170 
8     N2       0.9890  -36.0280   24.1030 N.am    1  LIG  -0.4596  -0.5470 
9     H3       0.7643  -35.9928   25.0860 H       1  LIG   0.3311   0.3700 
10    C5      -0.1450  -36.0180   23.4080 C.2     1  LIG   0.7361   0.5438 
11    C6      -0.1190  -36.0770   21.8860 C.ar    1  LIG  -0.2550   0.0862 
12    C7      -1.1230  -35.3990   21.1890 C.ar    1  LIG  -0.0321  -0.1500 
13    H4      -1.7552  -34.6955   21.7041 H       1  LIG   0.1623   0.1500 
14    C8      -1.2960  -35.6300   19.8690 C.ar    1  LIG  -0.2723  -0.1500 
15    H5      -2.0662  -35.1073   19.3273 H       1  LIG   0.1522   0.1500 
16    C9      -0.4670  -36.5450   19.2400 C.ar    1  LIG   0.4373   0.1600 
17    H6      -0.5947  -36.7554   18.1915 H       1  LIG   0.0280   0.1500 
18    N3       0.5220  -37.2120   19.8740 N.ar    1  LIG  -0.6893  -0.6200 
19    C10      0.7040  -36.9790   21.1800 C.ar    1  LIG   0.6480   0.4100 
20    N4       1.7670  -37.6730   21.8260 N.pl3   1  LIG  -0.6924  -0.3690 
21    C11      2.7540  -36.8570   22.5840 C.ar    1  LIG   0.5805   0.4100 
22    C12      2.9040  -34.5090   25.6010 C.3     1  LIG  -0.0620   0.1435 
23    H7       2.2235  -33.7630   25.2820 H       1  LIG   0.0570   0.0000 
24    H8       2.4436  -35.1154   26.3371 H       1  LIG   0.0495   0.0000 
25    H9       3.7654  -34.0491   26.0108 H       1  LIG   0.0519   0.0000 
26    O1      -1.2400  -35.9060   23.9770 O.2     1  LIG  -0.6361  -0.5700 
27    C13      2.3440  -38.7570   21.0360 C.3     1  LIG   0.1354   0.0690 
28    H10      3.1238  -38.3754   20.4296 H       1  LIG   0.0981   0.1000 
29    C14      2.9380  -39.8900   21.8010 C.3     1  LIG  -0.1181  -0.2000 
30    H11      3.8890  -40.1268   21.3997 H       1  LIG   0.0732   0.1000 
31    H12      3.0430  -39.6129   22.8177 H       1  LIG   0.0789   0.1000 
32    C15      1.6390  -40.0610   21.0880 C.3     1  LIG  -0.1196  -0.2000 
33    H13      0.6832  -39.9283   21.5242 H       1  LIG   0.0807   0.1000 
34    H14      1.5292  -40.4423   20.1061 H       1  LIG   0.0733   0.1000 
@<TRIPOS>BOND
1     2     1     ar
2     3     2     1
3     4     2     ar
4     5     4     1
5     6     4     ar
6     7     6     ar
7     8     7     1
8     9     8     1
9     10    8     1
10    11    10    1
11    12    11    ar
12    13    12    1
13    14    12    ar
14    15    14    1
15    16    14    ar
16    17    16    1
17    18    16    ar
18    19    11    ar
19    19    18    ar
20    20    19    1
21    21    1     ar
22    21    7     ar
23    21    20    1
24    22    6     1
25    23    22    1
26    24    22    1
27    25    22    1
28    26    10    2
29    27    20    1
30    28    27    1
31    29    27    1
32    30    29    1
33    31    29    1
34    32    27    1
35    32    29    1
36    33    32    1
37    34    32    1
@<TRIPOS>SUBSTRUCTURE
1   LIG    1    
 
########## Name        : 1VRT.lig
########## Description : AM1BCC_CHARGES =  -0.0002 ORIGINAL_CHARGES =  -0.0000

@<TRIPOS>MOLECULE
1VRT.lig
34    37    1     0     0    
SMALL
USER_CHARGES
@<TRIPOS>ATOM
1     N1       4.0540  -36.9310   22.2210 N.ar    1  LIG  -0.6650  -0.6200 
2     C1       4.9660  -36.2380   22.9390 C.ar    1  LIG   0.3947   0.1600 
3     H1       6.0082  -36.2811   22.6707 H       1  LIG   0.0281   0.1500 
4     C2       4.6240  -35.4500   24.0360 C.ar    1  LIG  -0.2334  -0.1500 
5     H2       5.3884  -34.9151   24.5740 H       1  LIG   0.1480   0.1500 
6     C3       3.3050  -35.3690   24.4150 C.ar    1  LIG  -0.0698  -0.1435 
7     C4       2.3460  -36.0770   23.6860 C.ar    1  LIG  -0.0398   0.1170 
8     N2       0.9890  -36.0280   24.1030 N.am    1  LIG  -0.4596  -0.5470 
9     H3       0.7643  -35.9928   25.0860 H       1  LIG   0.3311   0.3700 
10    C5      -0.1450  -36.0180   23.4080 C.2     1  LIG   0.7361   0.5438 
11    C6      -0.1190  -36.0770   21.8860 C.ar    1  LIG  -0.2550   0.0862 
12    C7      -1.1230  -35.3990   21.1890 C.ar    1  LIG  -0.0321  -0.1500 
13    H4      -1.7552  -34.6955   21.7041 H       1  LIG   0.1623   0.1500 
14    C8      -1.2960  -35.6300   19.8690 C.ar    1  LIG  -0.2723  -0.1500 
15    H5      -2.0662  -35.1073   19.3273 H       1  LIG   0.1522   0.1500 
16    C9      -0.4670  -36.5450   19.2400 C.ar    1  LIG   0.4373   0.1600 
17    H6      -0.5947  -36.7554   18.1915 H       1  LIG   0.0280   0.1500 
18    N3       0.5220  -37.2120   19.8740 N.ar    1  LIG  -0.6893  -0.6200 
19    C10      0.7040  -36.9790   21.1800 C.ar    1  LIG   0.6480   0.4100 
20    N4       1.7670  -37.6730   21.8260 N.pl3   1  LIG  -0.6924  -0.3690 
21    C11      2.7540  -36.8570   22.5840 C.ar    1  LIG   0.5805   0.4100 
22    C12      2.9040  -34.5090   25.6010 C.3     1  LIG  -0.0620   0.1435 
23    H7       2.2235  -33.7630   25.2820 H       1  LIG   0.0570   0.0000 
24    H8       2.4436  -35.1154   26.3371 H       1  LIG   0.0495   0.0000 
25    H9       3.7654  -34.0491   26.0108 H       1  LIG   0.0519   0.0000 
26    O1      -1.2400  -35.9060   23.9770 O.2     1  LIG  -0.6361  -0.5700 
27    C13      2.3440  -38.7570   21.0360 C.3     1  LIG   0.1354   0.0690 
28    H10      3.1238  -38.3754   20.4296 H       1  LIG   0.0981   0.1000 
29    C14      2.9380  -39.8900   21.8010 C.3     1  LIG  -0.1181  -0.2000 
30    H11      3.8890  -40.1268   21.3997 H       1  LIG   0.0732   0.1000 
31    H12      3.0430  -39.6129   22.8177 H       1  LIG   0.0789   0.1000 
32    C15      1.6390  -40.0610   21.0880 C.3     1  LIG  -0.1196  -0.2000 
33    H13      0.6832  -39.9283   21.5242 H       1  LIG   0.0807   0.1000 
34    H14      1.5292  -40.4423   20.1061 H       1  LIG   0.0733   0.1000 
@<TRIPOS>BOND
1     2     1     ar
2     3     2     1
3     4     2     ar
4     5     4     1
5     6     4     ar
6     7     6     ar
7     8     7     1
8     9     8     1
9     10    8     1
10    11    10    1
11    12    11    ar
12    13    12    1
13    14    12    ar
14    15    14    1
15    16    14    ar
16    17    16    1
17    18    16    ar
18    19    11    ar
19    19    18    ar
20    20    19    1
21    21    1     ar
22    21    7     ar
23    21    20    1
24    22    6     1
25    23    22    1
26    24    22    1
27    25    22    1
28    26    10    2
29    27    20    1
30    28    27    1
31    29    27    1
32    30    29    1
33    31    29    1
34    32    27    1
35    32    29    1
36    33    32    1
37    34    32    1
@<TRIPOS>SUBSTRUCTURE
1   LIG    1    
 
########## Name        : 1VRT.lig
########## Description : AM1BCC_CHARGES =  -0.0002 ORIGINAL_CHARGES =  -0.0000

@<TRIPOS>MOLECULE
1VRT.lig
34    37    1     0     0    
SMALL
USER_CHARGES
@<TRIPOS>ATOM
1     N1       4.0540  -36.9310   22.2210 N.ar    1  LIG  -0.6650  -0.6200 
2     C1       4.9660  -36.2380   22.9390 C.ar    1  LIG   0.3947   0.1600 
3     H1       6.0082  -36.2811   22.6707 H       1  LIG   0.0281   0.1500 
4     C2       4.6240  -35.4500   24.0360 C.ar    1  LIG  -0.2334  -0.1500 
5     H2       5.3884  -34.9151   24.5740 H       1  LIG   0.1480   0.1500 
6     C3       3.3050  -35.3690   24.4150 C.ar    1  LIG  -0.0698  -0.1435 
7     C4       2.3460  -36.0770   23.6860 C.ar    1  LIG  -0.0398   0.1170 
8     N2       0.9890  -36.0280   24.1030 N.am    1  LIG  -0.4596  -0.5470 
9     H3       0.7643  -35.9928   25.0860 H       1  LIG   0.3311   0.3700 
10    C5      -0.1450  -36.0180   23.4080 C.2     1  LIG   0.7361   0.5438 
11    C6      -0.1190  -36.0770   21.8860 C.ar    1  LIG  -0.2550   0.0862 
12    C7      -1.1230  -35.3990   21.1890 C.ar    1  LIG  -0.0321  -0.1500 
13    H4      -1.7552  -34.6955   21.7041 H       1  LIG   0.1623   0.1500 
14    C8      -1.2960  -35.6300   19.8690 C.ar    1  LIG  -0.2723  -0.1500 
15    H5      -2.0662  -35.1073   19.3273 H       1  LIG   0.1522   0.1500 
16    C9      -0.4670  -36.5450   19.2400 C.ar    1  LIG   0.4373   0.1600 
17    H6      -0.5947  -36.7554   18.1915 H       1  LIG   0.0280   0.1500 
18    N3       0.5220  -37.2120   19.8740 N.ar    1  LIG  -0.6893  -0.6200 
19    C10      0.7040  -36.9790   21.1800 C.ar    1  LIG   0.6480   0.4100 
20    N4       1.7670  -37.6730   21.8260 N.pl3   1  LIG  -0.6924  -0.3690 
21    C11      2.7540  -36.8570   22.5840 C.ar    1  LIG   0.5805   0.4100 
22    C12      2.9040  -34.5090   25.6010 C.3     1  LIG  -0.0620   0.1435 
23    H7       2.2235  -33.7630   25.2820 H       1  LIG   0.0570   0.0000 
24    H8       2.4436  -35.1154   26.3371 H       1  LIG   0.0495   0.0000 
25    H9       3.7654  -34.0491   26.0108 H       1  LIG   0.0519   0.0000 
26    O1      -1.2400  -35.9060   23.9770 O.2     1  LIG  -0.6361  -0.5700 
27    C13      2.3440  -38.7570   21.0360 C.3     1  LIG   0.1354   0.0690 
28    H10      3.1238  -38.3754   20.4296 H       1  LIG   0.0981   0.1000 
29    C14      2.9380  -39.8900   21.8010 C.3     1  LIG  -0.1181  -0.2000 
30    H11      3.8890  -40.1268   21.3997 H       1  LIG   0.0732   0.1000 
31    H12      3.0430  -39.6129   22.8177 H       1  LIG   0.0789   0.1000 
32    C15      1.6390  -40.0610   21.0880 C.3     1  LIG  -0.1196  -0.2000 
33    H13      0.6832  -39.9283   21.5242 H       1  LIG   0.0807   0.1000 
34    H14      1.5292  -40.4423   20.1061 H       1  LIG   0.0733   0.1000 
@<TRIPOS>BOND
1     2     1     ar
2     3     2     1
3     4     2     ar
4     5     4     1
5     6     4     ar
6     7     6     ar
7     8     7     1
8     9     8     1
9     10    8     1
10    11    10    1
11    12    11    ar
12    13    12    1
13    14    12    ar
14    15    14    1
15    16    14    ar
16    17    16    1
17    18    16    ar
18    19    11    ar
19    19    18    ar
20    20    19    1
21    21    1     ar
22    21    7     ar
23    21    20    1
24    22    6     1
25    23    22    1
26    24    22    1
27    25    22    1
28    26    10    2
29    27    20    1
30    28    27    1
31    29    27    1
32    30    29    1
33    31    29    1
34    32    27    1
35    32    29    1
36    33    32    1
37    34    32    1
@<TRIPOS>SUBSTRUCTURE
1   LIG    1    
 
########## Name        : 1VRT.lig
########## Description : AM1BCC_CHARGES =  -0.0002 ORIGINAL_CHARGES =  -0.0000

@<TRIPOS>MOLECULE
1VRT.lig
34    37    1     0     0    
SMALL
USER_CHARGES
@<TRIPOS>ATOM
1     N1       4.0540  -36.9310   22.2210 N.ar    1  LIG  -0.6650  -0.6200 
2     C1       4.9660  -36.2380   22.9390 C.ar    1  LIG   0.3947   0.1600 
3     H1       6.0082  -36.2811   22.6707 H       1  LIG   0.0281   0.1500 
4     C2       4.6240  -35.4500   24.0360 C.ar    1  LIG  -0.2334  -0.1500 
5     H2       5.3884  -34.9151   24.5740 H       1  LIG   0.1480   0.1500 
6     C3       3.3050  -35.3690   24.4150 C.ar    1  LIG  -0.0698  -0.1435 
7     C4       2.3460  -36.0770   23.6860 C.ar    1  LIG  -0.0398   0.1170 
8     N2       0.9890  -36.0280   24.1030 N.am    1  LIG  -0.4596  -0.5470 
9     H3       0.7643  -35.9928   25.0860 H       1  LIG   0.3311   0.3700 
10    C5      -0.1450  -36.0180   23.4080 C.2     1  LIG   0.7361   0.5438 
11    C6      -0.1190  -36.0770   21.8860 C.ar    1  LIG  -0.2550   0.0862 
12    C7      -1.1230  -35.3990   21.1890 C.ar    1  LIG  -0.0321  -0.1500 
13    H4      -1.7552  -34.6955   21.7041 H       1  LIG   0.1623   0.1500 
14    C8      -1.2960  -35.6300   19.8690 C.ar    1  LIG  -0.2723  -0.1500 
15    H5      -2.0662  -35.1073   19.3273 H       1  LIG   0.1522   0.1500 
16    C9      -0.4670  -36.5450   19.2400 C.ar    1  LIG   0.4373   0.1600 
17    H6      -0.5947  -36.7554   18.1915 H       1  LIG   0.0280   0.1500 
18    N3       0.5220  -37.2120   19.8740 N.ar    1  LIG  -0.6893  -0.6200 
19    C10      0.7040  -36.9790   21.1800 C.ar    1  LIG   0.6480   0.4100 
20    N4       1.7670  -37.6730   21.8260 N.pl3   1  LIG  -0.6924  -0.3690 
21    C11      2.7540  -36.8570   22.5840 C.ar    1  LIG   0.5805   0.4100 
22    C12      2.9040  -34.5090   25.6010 C.3     1  LIG  -0.0620   0.1435 
23    H7       2.2235  -33.7630   25.2820 H       1  LIG   0.0570   0.0000 
24    H8       2.4436  -35.1154   26.3371 H       1  LIG   0.0495   0.0000 
25    H9       3.7654  -34.0491   26.0108 H       1  LIG   0.0519   0.0000 
26    O1      -1.2400  -35.9060   23.9770 O.2     1  LIG  -0.6361  -0.5700 
27    C13      2.3440  -38.7570   21.0360 C.3     1  LIG   0.1354   0.0690 
28    H10      3.1238  -38.3754   20.4296 H       1  LIG   0.0981   0.1000 
29    C14      2.9380  -39.8900   21.8010 C.3     1  LIG  -0.1181  -0.2000 
30    H11      3.8890  -40.1268   21.3997 H       1  LIG   0.0732   0.1000 
31    H12      3.0430  -39.6129   22.8177 H       1  LIG   0.0789   0.1000 
32    C15      1.6390  -40.0610   21.0880 C.3     1  LIG  -0.1196  -0.2000 
33    H13      0.6832  -39.9283   21.5242 H       1  LIG   0.0807   0.1000 
34    H14      1.5292  -40.4423   20.1061 H       1  LIG   0.0733   0.1000 
@<TRIPOS>BOND
1     2     1     ar
2     3     2     1
3     4     2     ar
4     5     4     1
5     6     4     ar
6     7     6     ar
7     8     7     1
8     9     8     1
9     10    8     1
10    11    10    1
11    12    11    ar
12    13    12    1
13    14    12    ar
14    15    14    1
15    16    14    ar
16    17    16    1
17    18    16    ar
18    19    11    ar
19    19    18    ar
20    20    19    1
21    21    1     ar
22    21    7     ar
23    21    20    1
24    22    6     1
25    23    22    1
26    24    22    1
27    25    22    1
28    26    10    2
29    27    20    1
30    28    27    1
31    29    27    1
32    30    29    1
33    31    29    1
34    32    27    1
35    32    29    1
36    33    32    1
37    34    32    1
@<TRIPOS>SUBSTRUCTURE
1   LIG    1    
 
########## Name        : 1VRT.lig
########## Description : AM1BCC_CHARGES =  -0.0002 ORIGINAL_CHARGES =  -0.0000

@<TRIPOS>MOLECULE
1VRT.lig
34    37    1     0     0    
SMALL
USER_CHARGES
@<TRIPOS>ATOM
1     N1       4.0540  -36.9310   22.2210 N.ar    1  LIG  -0.6650  -0.6200 
2     C1       4.9660  -36.2380   22.9390 C.ar    1  LIG   0.3947   0.1600 
3     H1       6.0082  -36.2811   22.6707 H       1  LIG   0.0281   0.1500 
4     C2       4.6240  -35.4500   24.0360 C.ar    1  LIG  -0.2334  -0.1500 
5     H2       5.3884  -34.9151   24.5740 H       1  LIG   0.1480   0.1500 
6     C3       3.3050  -35.3690   24.4150 C.ar    1  LIG  -0.0698  -0.1435 
7     C4       2.3460  -36.0770   23.6860 C.ar    1  LIG  -0.0398   0.1170 
8     N2       0.9890  -36.0280   24.1030 N.am    1  LIG  -0.4596  -0.5470 
9     H3       0.7643  -35.9928   25.0860 H       1  LIG   0.3311   0.3700 
10    C5      -0.1450  -36.0180   23.4080 C.2     1  LIG   0.7361   0.5438 
11    C6      -0.1190  -36.0770   21.8860 C.ar    1  LIG  -0.2550   0.0862 
12    C7      -1.1230  -35.3990   21.1890 C.ar    1  LIG  -0.0321  -0.1500 
13    H4      -1.7552  -34.6955   21.7041 H       1  LIG   0.1623   0.1500 
14    C8      -1.2960  -35.6300   19.8690 C.ar    1  LIG  -0.2723  -0.1500 
15    H5      -2.0662  -35.1073   19.3273 H       1  LIG   0.1522   0.1500 
16    C9      -0.4670  -36.5450   19.2400 C.ar    1  LIG   0.4373   0.1600 
17    H6      -0.5947  -36.7554   18.1915 H       1  LIG   0.0280   0.1500 
18    N3       0.5220  -37.2120   19.8740 N.ar    1  LIG  -0.6893  -0.6200 
19    C10      0.7040  -36.9790   21.1800 C.ar    1  LIG   0.6480   0.4100 
20    N4       1.7670  -37.6730   21.8260 N.pl3   1  LIG  -0.6924  -0.3690 
21    C11      2.7540  -36.8570   22.5840 C.ar    1  LIG   0.5805   0.4100 
22    C12      2.9040  -34.5090   25.6010 C.3     1  LIG  -0.0620   0.1435 
23    H7       2.2235  -33.7630   25.2820 H       1  LIG   0.0570   0.0000 
24    H8       2.4436  -35.1154   26.3371 H       1  LIG   0.0495   0.0000 
25    H9       3.7654  -34.0491   26.0108 H       1  LIG   0.0519   0.0000 
26    O1      -1.2400  -35.9060   23.9770 O.2     1  LIG  -0.6361  -0.5700 
27    C13      2.3440  -38.7570   21.0360 C.3     1  LIG   0.1354   0.0690 
28    H10      3.1238  -38.3754   20.4296 H       1  LIG   0.0981   0.1000 
29    C14      2.9380  -39.8900   21.8010 C.3     1  LIG  -0.1181  -0.2000 
30    H11      3.8890  -40.1268   21.3997 H       1  LIG   0.0732   0.1000 
31    H12      3.0430  -39.6129   22.8177 H       1  LIG   0.0789   0.1000 
32    C15      1.6390  -40.0610   21.0880 C.3     1  LIG  -0.1196  -0.2000 
33    H13      0.6832  -39.9283   21.5242 H       1  LIG   0.0807   0.1000 
34    H14      1.5292  -40.4423   20.1061 H       1  LIG   0.0733   0.1000 
@<TRIPOS>BOND
1     2     1     ar
2     3     2     1
3     4     2     ar
4     5     4     1
5     6     4     ar
6     7     6     ar
7     8     7     1
8     9     8     1
9     10    8     1
10    11    10    1
11    12    11    ar
12    13    12    1
13    14    12    ar
14    15    14    1
15    16    14    ar
16    17    16    1
17    18    16    ar
18    19    11    ar
19    19    18    ar
20    20    19    1
21    21    1     ar
22    21    7     ar
23    21    20    1
24    22    6     1
25    23    22    1
26    24    22    1
27    25    22    1
28    26    10    2
29    27    20    1
30    28    27    1
31    29    27    1
32    30    29    1
33    31    29    1
34    32    27    1
35    32    29    1
36    33    32    1
37    34    32    1
@<TRIPOS>SUBSTRUCTURE
1   LIG    1    
 
########## Name        : 1VRT.lig
########## Description : AM1BCC_CHARGES =  -0.0002 ORIGINAL_CHARGES =  -0.0000

@<TRIPOS>MOLECULE
1VRT.lig
34    37    1     0     0    
SMALL
USER_CHARGES
@<TRIPOS>ATOM
1     N1       4.0540  -36.9310   22.2210 N.ar    1  LIG  -0.6650  -0.6200 
2     C1       4.9660  -36.2380   22.9390 C.ar    1  LIG   0.3947   0.1600 
3     H1       6.0082  -36.2811   22.6707 H       1  LIG   0.0281   0.1500 
4     C2       4.6240  -35.4500   24.0360 C.ar    1  LIG  -0.2334  -0.1500 
5     H2       5.3884  -34.9151   24.5740 H       1  LIG   0.1480   0.1500 
6     C3       3.3050  -35.3690   24.4150 C.ar    1  LIG  -0.0698  -0.1435 
7     C4       2.3460  -36.0770   23.6860 C.ar    1  LIG  -0.0398   0.1170 
8     N2       0.9890  -36.0280   24.1030 N.am    1  LIG  -0.4596  -0.5470 
9     H3       0.7643  -35.9928   25.0860 H       1  LIG   0.3311   0.3700 
10    C5      -0.1450  -36.0180   23.4080 C.2     1  LIG   0.7361   0.5438 
11    C6      -0.1190  -36.0770   21.8860 C.ar    1  LIG  -0.2550   0.0862 
12    C7      -1.1230  -35.3990   21.1890 C.ar    1  LIG  -0.0321  -0.1500 
13    H4      -1.7552  -34.6955   21.7041 H       1  LIG   0.1623   0.1500 
14    C8      -1.2960  -35.6300   19.8690 C.ar    1  LIG  -0.2723  -0.1500 
15    H5      -2.0662  -35.1073   19.3273 H       1  LIG   0.1522   0.1500 
16    C9      -0.4670  -36.5450   19.2400 C.ar    1  LIG   0.4373   0.1600 
17    H6      -0.5947  -36.7554   18.1915 H       1  LIG   0.0280   0.1500 
18    N3       0.5220  -37.2120   19.8740 N.ar    1  LIG  -0.6893  -0.6200 
19    C10      0.7040  -36.9790   21.1800 C.ar    1  LIG   0.6480   0.4100 
20    N4       1.7670  -37.6730   21.8260 N.pl3   1  LIG  -0.6924  -0.3690 
21    C11      2.7540  -36.8570   22.5840 C.ar    1  LIG   0.5805   0.4100 
22    C12      2.9040  -34.5090   25.6010 C.3     1  LIG  -0.0620   0.1435 
23    H7       2.2235  -33.7630   25.2820 H       1  LIG   0.0570   0.0000 
24    H8       2.4436  -35.1154   26.3371 H       1  LIG   0.0495   0.0000 
25    H9       3.7654  -34.0491   26.0108 H       1  LIG   0.0519   0.0000 
26    O1      -1.2400  -35.9060   23.9770 O.2     1  LIG  -0.6361  -0.5700 
27    C13      2.3440  -38.7570   21.0360 C.3     1  LIG   0.1354   0.0690 
28    H10      3.1238  -38.3754   20.4296 H       1  LIG   0.0981   0.1000 
29    C14      2.9380  -39.8900   21.8010 C.3     1  LIG  -0.1181  -0.2000 
30    H11      3.8890  -40.1268   21.3997 H       1  LIG   0.0732   0.1000 
31    H12      3.0430  -39.6129   22.8177 H       1  LIG   0.0789   0.1000 
32    C15      1.6390  -40.0610   21.0880 C.3     1  LIG  -0.1196  -0.2000 
33    H13      0.6832  -39.9283   21.5242 H       1  LIG   0.0807   0.1000 
34    H14      1.5292  -40.4423   20.1061 H       1  LIG   0.0733   0.1000 
@<TRIPOS>BOND
1     2     1     ar
2     3     2     1
3     4     2     ar
4     5     4     1
5     6     4     ar
6     7     6     ar
7     8     7     1
8     9     8     1
9     10    8     1
10    11    10    1
11    12    11    ar
12    13    12    1
13    14    12    ar
14    15    14    1
15    16    14    ar
16    17    16    1
17    18    16    ar
18    19    11    ar
19    19    18    ar
20    20    19    1
21    21    1     ar
22    21    7     ar
23    21    20    1
24    22    6     1
25    23    22    1
26    24    22    1
27    25    22    1
28    26    10    2
29    27    20    1
30    28    27    1
31    29    27    1
32    30    29    1
33    31    29    1
34    32    27    1
35    32    29    1
36    33    32    1
37    34    32    1
@<TRIPOS>SUBSTRUCTURE
1   LIG    1    
 
########## Name        : 1VRT.lig
########## Description : AM1BCC_CHARGES =  -0.0002 ORIGINAL_CHARGES =  -0.0000

@<TRIPOS>MOLECULE
1VRT.lig
34    37    1     0     0    
SMALL
USER_CHARGES
@<TRIPOS>ATOM
1     N1       4.0540  -36.9310   22.2210 N.ar    1  LIG  -0.6650  -0.6200 
2     C1       4.9660  -36.2380   22.9390 C.ar    1  LIG   0.3947   0.1600 
3     H1       6.0082  -36.2811   22.6707 H       1  LIG   0.0281   0.1500 
4     C2       4.6240  -35.4500   24.0360 C.ar    1  LIG  -0.2334  -0.1500 
5     H2       5.3884  -34.9151   24.5740 H       1  LIG   0.1480   0.1500 
6     C3       3.3050  -35.3690   24.4150 C.ar    1  LIG  -0.0698  -0.1435 
7     C4       2.3460  -36.0770   23.6860 C.ar    1  LIG  -0.0398   0.1170 
8     N2       0.9890  -36.0280   24.1030 N.am    1  LIG  -0.4596  -0.5470 
9     H3       0.7643  -35.9928   25.0860 H       1  LIG   0.3311   0.3700 
10    C5      -0.1450  -36.0180   23.4080 C.2     1  LIG   0.7361   0.5438 
11    C6      -0.1190  -36.0770   21.8860 C.ar    1  LIG  -0.2550   0.0862 
12    C7      -1.1230  -35.3990   21.1890 C.ar    1  LIG  -0.0321  -0.1500 
13    H4      -1.7552  -34.6955   21.7041 H       1  LIG   0.1623   0.1500 
14    C8      -1.2960  -35.6300   19.8690 C.ar    1  LIG  -0.2723  -0.1500 
15    H5      -2.0662  -35.1073   19.3273 H       1  LIG   0.1522   0.1500 
16    C9      -0.4670  -36.5450   19.2400 C.ar    1  LIG   0.4373   0.1600 
17    H6      -0.5947  -36.7554   18.1915 H       1  LIG   0.0280   0.1500 
18    N3       0.5220  -37.2120   19.8740 N.ar    1  LIG  -0.6893  -0.6200 
19    C10      0.7040  -36.9790   21.1800 C.ar    1  LIG   0.6480   0.4100 
20    N4       1.7670  -37.6730   21.8260 N.pl3   1  LIG  -0.6924  -0.3690 
21    C11      2.7540  -36.8570   22.5840 C.ar    1  LIG   0.5805   0.4100 
22    C12      2.9040  -34.5090   25.6010 C.3     1  LIG  -0.0620   0.1435 
23    H7       2.2235  -33.7630   25.2820 H       1  LIG   0.0570   0.0000 
24    H8       2.4436  -35.1154   26.3371 H       1  LIG   0.0495   0.0000 
25    H9       3.7654  -34.0491   26.0108 H       1  LIG   0.0519   0.0000 
26    O1      -1.2400  -35.9060   23.9770 O.2     1  LIG  -0.6361  -0.5700 
27    C13      2.3440  -38.7570   21.0360 C.3     1  LIG   0.1354   0.0690 
28    H10      3.1238  -38.3754   20.4296 H       1  LIG   0.0981   0.1000 
29    C14      2.9380  -39.8900   21.8010 C.3     1  LIG  -0.1181  -0.2000 
30    H11      3.8890  -40.1268   21.3997 H       1  LIG   0.0732   0.1000 
31    H12      3.0430  -39.6129   22.8177 H       1  LIG   0.0789   0.1000 
32    C15      1.6390  -40.0610   21.0880 C.3     1  LIG  -0.1196  -0.2000 
33    H13      0.6832  -39.9283   21.5242 H       1  LIG   0.0807   0.1000 
34    H14      1.5292  -40.4423   20.1061 H       1  LIG   0.0733   0.1000 
@<TRIPOS>BOND
1     2     1     ar
2     3     2     1
3     4     2     ar
4     5     4     1
5     6     4     ar
6     7     6     ar
7     8     7     1
8     9     8     1
9     10    8     1
10    11    10    1
11    12    11    ar
12    13    12    1
13    14    12    ar
14    15    14    1
15    16    14    ar
16    17    16    1
17    18    16    ar
18    19    11    ar
19    19    18    ar
20    20    19    1
21    21    1     ar
22    21    7     ar
23    21    20    1
24    22    6     1
25    23    22    1
26    24    22    1
27    25    22    1
28    26    10    2
29    27    20    1
30    28    27    1
31    29    27    1
32    30    29    1
33    31    29    1
34    32    27    1
35    32    29    1
36    33    32    1
37    34    32    1
@<TRIPOS>SUBSTRUCTURE
1   LIG    1    
 
########## Name        : 1VRT.lig
########## Description : AM1BCC_CHARGES =  -0.0002 ORIGINAL_CHARGES =  -0.0000

@<TRIPOS>MOLECULE
1VRT.lig
34    37    1     0     0    
SMALL
USER_CHARGES
@<TRIPOS>ATOM
1     N1       4.0540  -36.9310   22.2210 N.ar    1  LIG  -0.6650  -0.6200 
2     C1       4.9660  -36.2380   22.9390 C.ar    1  LIG   0.3947   0.1600 
3     H1       6.0082  -36.2811   22.6707 H       1  LIG   0.0281   0.1500 
4     C2       4.6240  -35.4500   24.0360 C.ar    1  LIG  -0.2334  -0.1500 
5     H2       5.3884  -34.9151   24.5740 H       1  LIG   0.1480   0.1500 
6     C3       3.3050  -35.3690   24.4150 C.ar    1  LIG  -0.0698  -0.1435 
7     C4       2.3460  -36.0770   23.6860 C.ar    1  LIG  -0.0398   0.1170 
8     N2       0.9890  -36.0280   24.1030 N.am    1  LIG  -0.4596  -0.5470 
9     H3       0.7643  -35.9928   25.0860 H       1  LIG   0.3311   0.3700 
10    C5      -0.1450  -36.0180   23.4080 C.2     1  LIG   0.7361   0.5438 
11    C6      -0.1190  -36.0770   21.8860 C.ar    1  LIG  -0.2550   0.0862 
12    C7      -1.1230  -35.3990   21.1890 C.ar    1  LIG  -0.0321  -0.1500 
13    H4      -1.7552  -34.6955   21.7041 H       1  LIG   0.1623   0.1500 
14    C8      -1.2960  -35.6300   19.8690 C.ar    1  LIG  -0.2723  -0.1500 
15    H5      -2.0662  -35.1073   19.3273 H       1  LIG   0.1522   0.1500 
16    C9      -0.4670  -36.5450   19.2400 C.ar    1  LIG   0.4373   0.1600 
17    H6      -0.5947  -36.7554   18.1915 H       1  LIG   0.0280   0.1500 
18    N3       0.5220  -37.2120   19.8740 N.ar    1  LIG  -0.6893  -0.6200 
19    C10      0.7040  -36.9790   21.1800 C.ar    1  LIG   0.6480   0.4100 
20    N4       1.7670  -37.6730   21.8260 N.pl3   1  LIG  -0.6924  -0.3690 
21    C11      2.7540  -36.8570   22.5840 C.ar    1  LIG   0.5805   0.4100 
22    C12      2.9040  -34.5090   25.6010 C.3     1  LIG  -0.0620   0.1435 
23    H7       2.2235  -33.7630   25.2820 H       1  LIG   0.0570   0.0000 
24    H8       2.4436  -35.1154   26.3371 H       1  LIG   0.0495   0.0000 
25    H9       3.7654  -34.0491   26.0108 H       1  LIG   0.0519   0.0000 
26    O1      -1.2400  -35.9060   23.9770 O.2     1  LIG  -0.6361  -0.5700 
27    C13      2.3440  -38.7570   21.0360 C.3     1  LIG   0.1354   0.0690 
28    H10      3.1238  -38.3754   20.4296 H       1  LIG   0.0981   0.1000 
29    C14      2.9380  -39.8900   21.8010 C.3     1  LIG  -0.1181  -0.2000 
30    H11      3.8890  -40.1268   21.3997 H       1  LIG   0.0732   0.1000 
31    H12      3.0430  -39.6129   22.8177 H       1  LIG   0.0789   0.1000 
32    C15      1.6390  -40.0610   21.0880 C.3     1  LIG  -0.1196  -0.2000 
33    H13      0.6832  -39.9283   21.5242 H       1  LIG   0.0807   0.1000 
34    H14      1.5292  -40.4423   20.1061 H       1  LIG   0.0733   0.1000 
@<TRIPOS>BOND
1     2     1     ar
2     3     2     1
3     4     2     ar
4     5     4     1
5     6     4     ar
6     7     6     ar
7     8     7     1
8     9     8     1
9     10    8     1
10    11    10    1
11    12    11    ar
12    13    12    1
13    14    12    ar
14    15    14    1
15    16    14    ar
16    17    16    1
17    18    16    ar
18    19    11    ar
19    19    18    ar
20    20    19    1
21    21    1     ar
22    21    7     ar
23    21    20    1
24    22    6     1
25    23    22    1
26    24    22    1
27    25    22    1
28    26    10    2
29    27    20    1
30    28    27    1
31    29    27    1
32    30    29    1
33    31    29    1
34    32    27    1
35    32    29    1
36    33    32    1
37    34    32    1
@<TRIPOS>SUBSTRUCTURE
1   LIG    1    
 
########## Name        : 1VRT.lig
########## Description : AM1BCC_CHARGES =  -0.0002 ORIGINAL_CHARGES =  -0.0000

@<TRIPOS>MOLECULE
1VRT.lig
34    37    1     0     0    
SMALL
USER_CHARGES
@<TRIPOS>ATOM
1     N1       4.0540  -36.9310   22.2210 N.ar    1  LIG  -0.6650  -0.6200 
2     C1       4.9660  -36.2380   22.9390 C.ar    1  LIG   0.3947   0.1600 
3     H1       6.0082  -36.2811   22.6707 H       1  LIG   0.0281   0.1500 
4     C2       4.6240  -35.4500   24.0360 C.ar    1  LIG  -0.2334  -0.1500 
5     H2       5.3884  -34.9151   24.5740 H       1  LIG   0.1480   0.1500 
6     C3       3.3050  -35.3690   24.4150 C.ar    1  LIG  -0.0698  -0.1435 
7     C4       2.3460  -36.0770   23.6860 C.ar    1  LIG  -0.0398   0.1170 
8     N2       0.9890  -36.0280   24.1030 N.am    1  LIG  -0.4596  -0.5470 
9     H3       0.7643  -35.9928   25.0860 H       1  LIG   0.3311   0.3700 
10    C5      -0.1450  -36.0180   23.4080 C.2     1  LIG   0.7361   0.5438 
11    C6      -0.1190  -36.0770   21.8860 C.ar    1  LIG  -0.2550   0.0862 
12    C7      -1.1230  -35.3990   21.1890 C.ar    1  LIG  -0.0321  -0.1500 
13    H4      -1.7552  -34.6955   21.7041 H       1  LIG   0.1623   0.1500 
14    C8      -1.2960  -35.6300   19.8690 C.ar    1  LIG  -0.2723  -0.1500 
15    H5      -2.0662  -35.1073   19.3273 H       1  LIG   0.1522   0.1500 
16    C9      -0.4670  -36.5450   19.2400 C.ar    1  LIG   0.4373   0.1600 
17    H6      -0.5947  -36.7554   18.1915 H       1  LIG   0.0280   0.1500 
18    N3       0.5220  -37.2120   19.8740 N.ar    1  LIG  -0.6893  -0.6200 
19    C10      0.7040  -36.9790   21.1800 C.ar    1  LIG   0.6480   0.4100 
20    N4       1.7670  -37.6730   21.8260 N.pl3   1  LIG  -0.6924  -0.3690 
21    C11      2.7540  -36.8570   22.5840 C.ar    1  LIG   0.5805   0.4100 
22    C12      2.9040  -34.5090   25.6010 C.3     1  LIG  -0.0620   0.1435 
23    H7       2.2235  -33.7630   25.2820 H       1  LIG   0.0570   0.0000 
24    H8       2.4436  -35.1154   26.3371 H       1  LIG   0.0495   0.0000 
25    H9       3.7654  -34.0491   26.0108 H       1  LIG   0.0519   0.0000 
26    O1      -1.2400  -35.9060   23.9770 O.2     1  LIG  -0.6361  -0.5700 
27    C13      2.3440  -38.7570   21.0360 C.3     1  LIG   0.1354   0.0690 
28    H10      3.1238  -38.3754   20.4296 H       1  LIG   0.0981   0.1000 
29    C14      2.9380  -39.8900   21.8010 C.3     1  LIG  -0.1181  -0.2000 
30    H11      3.8890  -40.1268   21.3997 H       1  LIG   0.0732   0.1000 
31    H12      3.0430  -39.6129   22.8177 H       1  LIG   0.0789   0.1000 
32    C15      1.6390  -40.0610   21.0880 C.3     1  LIG  -0.1196  -0.2000 
33    H13      0.6832  -39.9283   21.5242 H       1  LIG   0.0807   0.1000 
34    H14      1.5292  -40.4423   20.1061 H       1  LIG   0.0733   0.1000 
@<TRIPOS>BOND
1     2     1     ar
2     3     2     1
3     4     2     ar
4     5     4     1
5     6     4     ar
6     7     6     ar
7     8     7     1
8     9     8     1
9     10    8     1
10    11    10    1
11    12    11    ar
12    13    12    1
13    14    12    ar
14    15    14    1
15    16    14    ar
16    17    16    1
17    18    16    ar
18    19    11    ar
19    19    18    ar
20    20    19    1
21    21    1     ar
22    21    7     ar
23    21    20    1
24    22    6     1
25    23    22    1
26    24    22    1
27    25    22    1
28    26    10    2
29    27    20    1
30    28    27    1
31    29    27    1
32    30    29    1
33    31    29    1
34    32    27    1
35    32    29    1
36    33    32    1
37    34    32    1
@<TRIPOS>SUBSTRUCTURE
1   LIG    1    
 
########## Name        : 1VRT.lig
########## Description : AM1BCC_CHARGES =  -0.0002 ORIGINAL_CHARGES =  -0.0000

@<TRIPOS>MOLECULE
1VRT.lig
34    37    1     0     0    
SMALL
USER_CHARGES
@<TRIPOS>ATOM
1     N1       4.0540  -36.9310   22.2210 N.ar    1  LIG  -0.6650  -0.6200 
2     C1       4.9660  -36.2380   22.9390 C.ar    1  LIG   0.3947   0.1600 
3     H1       6.0082  -36.2811   22.6707 H       1  LIG   0.0281   0.1500 
4     C2       4.6240  -35.4500   24.0360 C.ar    1  LIG  -0.2334  -0.1500 
5     H2       5.3884  -34.9151   24.5740 H       1  LIG   0.1480   0.1500 
6     C3       3.3050  -35.3690   24.4150 C.ar    1  LIG  -0.0698  -0.1435 
7     C4       2.3460  -36.0770   23.6860 C.ar    1  LIG  -0.0398   0.1170 
8     N2       0.9890  -36.0280   24.1030 N.am    1  LIG  -0.4596  -0.5470 
9     H3       0.7643  -35.9928   25.0860 H       1  LIG   0.3311   0.3700 
10    C5      -0.1450  -36.0180   23.4080 C.2     1  LIG   0.7361   0.5438 
11    C6      -0.1190  -36.0770   21.8860 C.ar    1  LIG  -0.2550   0.0862 
12    C7      -1.1230  -35.3990   21.1890 C.ar    1  LIG  -0.0321  -0.1500 
13    H4      -1.7552  -34.6955   21.7041 H       1  LIG   0.1623   0.1500 
14    C8      -1.2960  -35.6300   19.8690 C.ar    1  LIG  -0.2723  -0.1500 
15    H5      -2.0662  -35.1073   19.3273 H       1  LIG   0.1522   0.1500 
16    C9      -0.4670  -36.5450   19.2400 C.ar    1  LIG   0.4373   0.1600 
17    H6      -0.5947  -36.7554   18.1915 H       1  LIG   0.0280   0.1500 
18    N3       0.5220  -37.2120   19.8740 N.ar    1  LIG  -0.6893  -0.6200 
19    C10      0.7040  -36.9790   21.1800 C.ar    1  LIG   0.6480   0.4100 
20    N4       1.7670  -37.6730   21.8260 N.pl3   1  LIG  -0.6924  -0.3690 
21    C11      2.7540  -36.8570   22.5840 C.ar    1  LIG   0.5805   0.4100 
22    C12      2.9040  -34.5090   25.6010 C.3     1  LIG  -0.0620   0.1435 
23    H7       2.2235  -33.7630   25.2820 H       1  LIG   0.0570   0.0000 
24    H8       2.4436  -35.1154   26.3371 H       1  LIG   0.0495   0.0000 
25    H9       3.7654  -34.0491   26.0108 H       1  LIG   0.0519   0.0000 
26    O1      -1.2400  -35.9060   23.9770 O.2     1  LIG  -0.6361  -0.5700 
27    C13      2.3440  -38.7570   21.0360 C.3     1  LIG   0.1354   0.0690 
28    H10      3.1238  -38.3754   20.4296 H       1  LIG   0.0981   0.1000 
29    C14      2.9380  -39.8900   21.8010 C.3     1  LIG  -0.1181  -0.2000 
30    H11      3.8890  -40.1268   21.3997 H       1  LIG   0.0732   0.1000 
31    H12      3.0430  -39.6129   22.8177 H       1  LIG   0.0789   0.1000 
32    C15      1.6390  -40.0610   21.0880 C.3     1  LIG  -0.1196  -0.2000 
33    H13      0.6832  -39.9283   21.5242 H       1  LIG   0.0807   0.1000 
34    H14      1.5292  -40.4423   20.1061 H       1  LIG   0.0733   0.1000 
@<TRIPOS>BOND
1     2     1     ar
2     3     2     1
3     4     2     ar
4     5     4     1
5     6     4     ar
6     7     6     ar
7     8     7     1
8     9     8     1
9     10    8     1
10    11    10    1
11    12    11    ar
12    13    12    1
13    14    12    ar
14    15    14    1
15    16    14    ar
16    17    16    1
17    18    16    ar
18    19    11    ar
19    19    18    ar
20    20    19    1
21    21    1     ar
22    21    7     ar
23    21    20    1
24    22    6     1
25    23    22    1
26    24    22    1
27    25    22    1
28    26    10    2
29    27    20    1
30    28    27    1
31    29    27    1
32    30    29    1
33    31    29    1
34    32    27    1
35    32    29    1
36    33    32    1
37    34    32    1
@<TRIPOS>SUBSTRUCTURE
1   LIG    1    
 
########## Name        : 1VRT.lig
########## Description : AM1BCC_CHARGES =  -0.0002 ORIGINAL_CHARGES =  -0.0000

@<TRIPOS>MOLECULE
1VRT.lig
34    37    1     0     0    
SMALL
USER_CHARGES
@<TRIPOS>ATOM
1     N1       4.0540  -36.9310   22.2210 N.ar    1  LIG  -0.6650  -0.6200 
2     C1       4.9660  -36.2380   22.9390 C.ar    1  LIG   0.3947   0.1600 
3     H1       6.0082  -36.2811   22.6707 H       1  LIG   0.0281   0.1500 
4     C2       4.6240  -35.4500   24.0360 C.ar    1  LIG  -0.2334  -0.1500 
5     H2       5.3884  -34.9151   24.5740 H       1  LIG   0.1480   0.1500 
6     C3       3.3050  -35.3690   24.4150 C.ar    1  LIG  -0.0698  -0.1435 
7     C4       2.3460  -36.0770   23.6860 C.ar    1  LIG  -0.0398   0.1170 
8     N2       0.9890  -36.0280   24.1030 N.am    1  LIG  -0.4596  -0.5470 
9     H3       0.7643  -35.9928   25.0860 H       1  LIG   0.3311   0.3700 
10    C5      -0.1450  -36.0180   23.4080 C.2     1  LIG   0.7361   0.5438 
11    C6      -0.1190  -36.0770   21.8860 C.ar    1  LIG  -0.2550   0.0862 
12    C7      -1.1230  -35.3990   21.1890 C.ar    1  LIG  -0.0321  -0.1500 
13    H4      -1.7552  -34.6955   21.7041 H       1  LIG   0.1623   0.1500 
14    C8      -1.2960  -35.6300   19.8690 C.ar    1  LIG  -0.2723  -0.1500 
15    H5      -2.0662  -35.1073   19.3273 H       1  LIG   0.1522   0.1500 
16    C9      -0.4670  -36.5450   19.2400 C.ar    1  LIG   0.4373   0.1600 
17    H6      -0.5947  -36.7554   18.1915 H       1  LIG   0.0280   0.1500 
18    N3       0.5220  -37.2120   19.8740 N.ar    1  LIG  -0.6893  -0.6200 
19    C10      0.7040  -36.9790   21.1800 C.ar    1  LIG   0.6480   0.4100 
20    N4       1.7670  -37.6730   21.8260 N.pl3   1  LIG  -0.6924  -0.3690 
21    C11      2.7540  -36.8570   22.5840 C.ar    1  LIG   0.5805   0.4100 
22    C12      2.9040  -34.5090   25.6010 C.3     1  LIG  -0.0620   0.1435 
23    H7       2.2235  -33.7630   25.2820 H       1  LIG   0.0570   0.0000 
24    H8       2.4436  -35.1154   26.3371 H       1  LIG   0.0495   0.0000 
25    H9       3.7654  -34.0491   26.0108 H       1  LIG   0.0519   0.0000 
26    O1      -1.2400  -35.9060   23.9770 O.2     1  LIG  -0.6361  -0.5700 
27    C13      2.3440  -38.7570   21.0360 C.3     1  LIG   0.1354   0.0690 
28    H10      3.1238  -38.3754   20.4296 H       1  LIG   0.0981   0.1000 
29    C14      2.9380  -39.8900   21.8010 C.3     1  LIG  -0.1181  -0.2000 
30    H11      3.8890  -40.1268   21.3997 H       1  LIG   0.0732   0.1000 
31    H12      3.0430  -39.6129   22.8177 H       1  LIG   0.0789   0.1000 
32    C15      1.6390  -40.0610   21.0880 C.3     1  LIG  -0.1196  -0.2000 
33    H13      0.6832  -39.9283   21.5242 H       1  LIG   0.0807   0.1000 
34    H14      1.5292  -40.4423   20.1061 H       1  LIG   0.0733   0.1000 
@<TRIPOS>BOND
1     2     1     ar
2     3     2     1
3     4     2     ar
4     5     4     1
5     6     4     ar
6     7     6     ar
7     8     7     1
8     9     8     1
9     10    8     1
10    11    10    1
11    12    11    ar
12    13    12    1
13    14    12    ar
14    15    14    1
15    16    14    ar
16    17    16    1
17    18    16    ar
18    19    11    ar
19    19    18    ar
20    20    19    1
21    21    1     ar
22    21    7     ar
23    21    20    1
24    22    6     1
25    23    22    1
26    24    22    1
27    25    22    1
28    26    10    2
29    27    20    1
30    28    27    1
31    29    27    1
32    30    29    1
33    31    29    1
34    32    27    1
35    32    29    1
36    33    32    1
37    34    32    1
@<TRIPOS>SUBSTRUCTURE
1   LIG    1    
 
########## Name        : 1VRT.lig
########## Description : AM1BCC_CHARGES =  -0.0002 ORIGINAL_CHARGES =  -0.0000

@<TRIPOS>MOLECULE
1VRT.lig
34    37    1     0     0    
SMALL
USER_CHARGES
@<TRIPOS>ATOM
1     N1       4.0540  -36.9310   22.2210 N.ar    1  LIG  -0.6650  -0.6200 
2     C1       4.9660  -36.2380   22.9390 C.ar    1  LIG   0.3947   0.1600 
3     H1       6.0082  -36.2811   22.6707 H       1  LIG   0.0281   0.1500 
4     C2       4.6240  -35.4500   24.0360 C.ar    1  LIG  -0.2334  -0.1500 
5     H2       5.3884  -34.9151   24.5740 H       1  LIG   0.1480   0.1500 
6     C3       3.3050  -35.3690   24.4150 C.ar    1  LIG  -0.0698  -0.1435 
7     C4       2.3460  -36.0770   23.6860 C.ar    1  LIG  -0.0398   0.1170 
8     N2       0.9890  -36.0280   24.1030 N.am    1  LIG  -0.4596  -0.5470 
9     H3       0.7643  -35.9928   25.0860 H       1  LIG   0.3311   0.3700 
10    C5      -0.1450  -36.0180   23.4080 C.2     1  LIG   0.7361   0.5438 
11    C6      -0.1190  -36.0770   21.8860 C.ar    1  LIG  -0.2550   0.0862 
12    C7      -1.1230  -35.3990   21.1890 C.ar    1  LIG  -0.0321  -0.1500 
13    H4      -1.7552  -34.6955   21.7041 H       1  LIG   0.1623   0.1500 
14    C8      -1.2960  -35.6300   19.8690 C.ar    1  LIG  -0.2723  -0.1500 
15    H5      -2.0662  -35.1073   19.3273 H       1  LIG   0.1522   0.1500 
16    C9      -0.4670  -36.5450   19.2400 C.ar    1  LIG   0.4373   0.1600 
17    H6      -0.5947  -36.7554   18.1915 H       1  LIG   0.0280   0.1500 
18    N3       0.5220  -37.2120   19.8740 N.ar    1  LIG  -0.6893  -0.6200 
19    C10      0.7040  -36.9790   21.1800 C.ar    1  LIG   0.6480   0.4100 
20    N4       1.7670  -37.6730   21.8260 N.pl3   1  LIG  -0.6924  -0.3690 
21    C11      2.7540  -36.8570   22.5840 C.ar    1  LIG   0.5805   0.4100 
22    C12      2.9040  -34.5090   25.6010 C.3     1  LIG  -0.0620   0.1435 
23    H7       2.2235  -33.7630   25.2820 H       1  LIG   0.0570   0.0000 
24    H8       2.4436  -35.1154   26.3371 H       1  LIG   0.0495   0.0000 
25    H9       3.7654  -34.0491   26.0108 H       1  LIG   0.0519   0.0000 
26    O1      -1.2400  -35.9060   23.9770 O.2     1  LIG  -0.6361  -0.5700 
27    C13      2.3440  -38.7570   21.0360 C.3     1  LIG   0.1354   0.0690 
28    H10      3.1238  -38.3754   20.4296 H       1  LIG   0.0981   0.1000 
29    C14      2.9380  -39.8900   21.8010 C.3     1  LIG  -0.1181  -0.2000 
30    H11      3.8890  -40.1268   21.3997 H       1  LIG   0.0732   0.1000 
31    H12      3.0430  -39.6129   22.8177 H       1  LIG   0.0789   0.1000 
32    C15      1.6390  -40.0610   21.0880 C.3     1  LIG  -0.1196  -0.2000 
33    H13      0.6832  -39.9283   21.5242 H       1  LIG   0.0807   0.1000 
34    H14      1.5292  -40.4423   20.1061 H       1  LIG   0.0733   0.1000 
@<TRIPOS>BOND
1     2     1     ar
2     3     2     1
3     4     2     ar
4     5     4     1
5     6     4     ar
6     7     6     ar
7     8     7     1
8     9     8     1
9     10    8     1
10    11    10    1
11    12    11    ar
12    13    12    1
13    14    12    ar
14    15    14    1
15    16    14    ar
16    17    16    1
17    18    16    ar
18    19    11    ar
19    19    18    ar
20    20    19    1
21    21    1     ar
22    21    7     ar
23    21    20    1
24    22    6     1
25    23    22    1
26    24    22    1
27    25    22    1
28    26    10    2
29    27    20    1
30    28    27    1
31    29    27    1
32    30    29    1
33    31    29    1
34    32    27    1
35    32    29    1
36    33    32    1
37    34    32    1
@<TRIPOS>SUBSTRUCTURE
1   LIG    1    
 
########## Name        : 1VRT.lig
########## Description : AM1BCC_CHARGES =  -0.0002 ORIGINAL_CHARGES =  -0.0000

@<TRIPOS>MOLECULE
1VRT.lig
34    37    1     0     0    
SMALL
USER_CHARGES
@<TRIPOS>ATOM
1     N1       4.0540  -36.9310   22.2210 N.ar    1  LIG  -0.6650  -0.6200 
2     C1       4.9660  -36.2380   22.9390 C.ar    1  LIG   0.3947   0.1600 
3     H1       6.0082  -36.2811   22.6707 H       1  LIG   0.0281   0.1500 
4     C2       4.6240  -35.4500   24.0360 C.ar    1  LIG  -0.2334  -0.1500 
5     H2       5.3884  -34.9151   24.5740 H       1  LIG   0.1480   0.1500 
6     C3       3.3050  -35.3690   24.4150 C.ar    1  LIG  -0.0698  -0.1435 
7     C4       2.3460  -36.0770   23.6860 C.ar    1  LIG  -0.0398   0.1170 
8     N2       0.9890  -36.0280   24.1030 N.am    1  LIG  -0.4596  -0.5470 
9     H3       0.7643  -35.9928   25.0860 H       1  LIG   0.3311   0.3700 
10    C5      -0.1450  -36.0180   23.4080 C.2     1  LIG   0.7361   0.5438 
11    C6      -0.1190  -36.0770   21.8860 C.ar    1  LIG  -0.2550   0.0862 
12    C7      -1.1230  -35.3990   21.1890 C.ar    1  LIG  -0.0321  -0.1500 
13    H4      -1.7552  -34.6955   21.7041 H       1  LIG   0.1623   0.1500 
14    C8      -1.2960  -35.6300   19.8690 C.ar    1  LIG  -0.2723  -0.1500 
15    H5      -2.0662  -35.1073   19.3273 H       1  LIG   0.1522   0.1500 
16    C9      -0.4670  -36.5450   19.2400 C.ar    1  LIG   0.4373   0.1600 
17    H6      -0.5947  -36.7554   18.1915 H       1  LIG   0.0280   0.1500 
18    N3       0.5220  -37.2120   19.8740 N.ar    1  LIG  -0.6893  -0.6200 
19    C10      0.7040  -36.9790   21.1800 C.ar    1  LIG   0.6480   0.4100 
20    N4       1.7670  -37.6730   21.8260 N.pl3   1  LIG  -0.6924  -0.3690 
21    C11      2.7540  -36.8570   22.5840 C.ar    1  LIG   0.5805   0.4100 
22    C12      2.9040  -34.5090   25.6010 C.3     1  LIG  -0.0620   0.1435 
23    H7       2.2235  -33.7630   25.2820 H       1  LIG   0.0570   0.0000 
24    H8       2.4436  -35.1154   26.3371 H       1  LIG   0.0495   0.0000 
25    H9       3.7654  -34.0491   26.0108 H       1  LIG   0.0519   0.0000 
26    O1      -1.2400  -35.9060   23.9770 O.2     1  LIG  -0.6361  -0.5700 
27    C13      2.3440  -38.7570   21.0360 C.3     1  LIG   0.1354   0.0690 
28    H10      3.1238  -38.3754   20.4296 H       1  LIG   0.0981   0.1000 
29    C14      2.9380  -39.8900   21.8010 C.3     1  LIG  -0.1181  -0.2000 
30    H11      3.8890  -40.1268   21.3997 H       1  LIG   0.0732   0.1000 
31    H12      3.0430  -39.6129   22.8177 H       1  LIG   0.0789   0.1000 
32    C15      1.6390  -40.0610   21.0880 C.3     1  LIG  -0.1196  -0.2000 
33    H13      0.6832  -39.9283   21.5242 H       1  LIG   0.0807   0.1000 
34    H14      1.5292  -40.4423   20.1061 H       1  LIG   0.0733   0.1000 
@<TRIPOS>BOND
1     2     1     ar
2     3     2     1
3     4     2     ar
4     5     4     1
5     6     4     ar
6     7     6     ar
7     8     7     1
8     9     8     1
9     10    8     1
10    11    10    1
11    12    11    ar
12    13    12    1
13    14    12    ar
14    15    14    1
15    16    14    ar
16    17    16    1
17    18    16    ar
18    19    11    ar
19    19    18    ar
20    20    19    1
21    21    1     ar
22    21    7     ar
23    21    20    1
24    22    6     1
25    23    22    1
26    24    22    1
27    25    22    1
28    26    10    2
29    27    20    1
30    28    27    1
31    29    27    1
32    30    29    1
33    31    29    1
34    32    27    1
35    32    29    1
36    33    32    1
37    34    32    1
@<TRIPOS>SUBSTRUCTURE
1   LIG    1    
 
########## Name        : 1VRT.lig
########## Description : AM1BCC_CHARGES =  -0.0002 ORIGINAL_CHARGES =  -0.0000

@<TRIPOS>MOLECULE
1VRT.lig
34    37    1     0     0    
SMALL
USER_CHARGES
@<TRIPOS>ATOM
1     N1       4.0540  -36.9310   22.2210 N.ar    1  LIG  -0.6650  -0.6200 
2     C1       4.9660  -36.2380   22.9390 C.ar    1  LIG   0.3947   0.1600 
3     H1       6.0082  -36.2811   22.6707 H       1  LIG   0.0281   0.1500 
4     C2       4.6240  -35.4500   24.0360 C.ar    1  LIG  -0.2334  -0.1500 
5     H2       5.3884  -34.9151   24.5740 H       1  LIG   0.1480   0.1500 
6     C3       3.3050  -35.3690   24.4150 C.ar    1  LIG  -0.0698  -0.1435 
7     C4       2.3460  -36.0770   23.6860 C.ar    1  LIG  -0.0398   0.1170 
8     N2       0.9890  -36.0280   24.1030 N.am    1  LIG  -0.4596  -0.5470 
9     H3       0.7643  -35.9928   25.0860 H       1  LIG   0.3311   0.3700 
10    C5      -0.1450  -36.0180   23.4080 C.2     1  LIG   0.7361   0.5438 
11    C6      -0.1190  -36.0770   21.8860 C.ar    1  LIG  -0.2550   0.0862 
12    C7      -1.1230  -35.3990   21.1890 C.ar    1  LIG  -0.0321  -0.1500 
13    H4      -1.7552  -34.6955   21.7041 H       1  LIG   0.1623   0.1500 
14    C8      -1.2960  -35.6300   19.8690 C.ar    1  LIG  -0.2723  -0.1500 
15    H5      -2.0662  -35.1073   19.3273 H       1  LIG   0.1522   0.1500 
16    C9      -0.4670  -36.5450   19.2400 C.ar    1  LIG   0.4373   0.1600 
17    H6      -0.5947  -36.7554   18.1915 H       1  LIG   0.0280   0.1500 
18    N3       0.5220  -37.2120   19.8740 N.ar    1  LIG  -0.6893  -0.6200 
19    C10      0.7040  -36.9790   21.1800 C.ar    1  LIG   0.6480   0.4100 
20    N4       1.7670  -37.6730   21.8260 N.pl3   1  LIG  -0.6924  -0.3690 
21    C11      2.7540  -36.8570   22.5840 C.ar    1  LIG   0.5805   0.4100 
22    C12      2.9040  -34.5090   25.6010 C.3     1  LIG  -0.0620   0.1435 
23    H7       2.2235  -33.7630   25.2820 H       1  LIG   0.0570   0.0000 
24    H8       2.4436  -35.1154   26.3371 H       1  LIG   0.0495   0.0000 
25    H9       3.7654  -34.0491   26.0108 H       1  LIG   0.0519   0.0000 
26    O1      -1.2400  -35.9060   23.9770 O.2     1  LIG  -0.6361  -0.5700 
27    C13      2.3440  -38.7570   21.0360 C.3     1  LIG   0.1354   0.0690 
28    H10      3.1238  -38.3754   20.4296 H       1  LIG   0.0981   0.1000 
29    C14      2.9380  -39.8900   21.8010 C.3     1  LIG  -0.1181  -0.2000 
30    H11      3.8890  -40.1268   21.3997 H       1  LIG   0.0732   0.1000 
31    H12      3.0430  -39.6129   22.8177 H       1  LIG   0.0789   0.1000 
32    C15      1.6390  -40.0610   21.0880 C.3     1  LIG  -0.1196  -0.2000 
33    H13      0.6832  -39.9283   21.5242 H       1  LIG   0.0807   0.1000 
34    H14      1.5292  -40.4423   20.1061 H       1  LIG   0.0733   0.1000 
@<TRIPOS>BOND
1     2     1     ar
2     3     2     1
3     4     2     ar
4     5     4     1
5     6     4     ar
6     7     6     ar
7     8     7     1
8     9     8     1
9     10    8     1
10    11    10    1
11    12    11    ar
12    13    12    1
13    14    12    ar
14    15    14    1
15    16    14    ar
16    17    16    1
17    18    16    ar
18    19    11    ar
19    19    18    ar
20    20    19    1
21    21    1     ar
22    21    7     ar
23    21    20    1
24    22    6     1
25    23    22    1
26    24    22    1
27    25    22    1
28    26    10    2
29    27    20    1
30    28    27    1
31    29    27    1
32    30    29    1
33    31    29    1
34    32    27    1
35    32    29    1
36    33    32    1
37    34    32    1
@<TRIPOS>SUBSTRUCTURE
1   LIG    1    
 
########## Name        : 1VRT.lig
########## Description : AM1BCC_CHARGES =  -0.0002 ORIGINAL_CHARGES =  -0.0000

@<TRIPOS>MOLECULE
1VRT.lig
34    37    1     0     0    
SMALL
USER_CHARGES
@<TRIPOS>ATOM
1     N1       4.0540  -36.9310   22.2210 N.ar    1  LIG  -0.6650  -0.6200 
2     C1       4.9660  -36.2380   22.9390 C.ar    1  LIG   0.3947   0.1600 
3     H1       6.0082  -36.2811   22.6707 H       1  LIG   0.0281   0.1500 
4     C2       4.6240  -35.4500   24.0360 C.ar    1  LIG  -0.2334  -0.1500 
5     H2       5.3884  -34.9151   24.5740 H       1  LIG   0.1480   0.1500 
6     C3       3.3050  -35.3690   24.4150 C.ar    1  LIG  -0.0698  -0.1435 
7     C4       2.3460  -36.0770   23.6860 C.ar    1  LIG  -0.0398   0.1170 
8     N2       0.9890  -36.0280   24.1030 N.am    1  LIG  -0.4596  -0.5470 
9     H3       0.7643  -35.9928   25.0860 H       1  LIG   0.3311   0.3700 
10    C5      -0.1450  -36.0180   23.4080 C.2     1  LIG   0.7361   0.5438 
11    C6      -0.1190  -36.0770   21.8860 C.ar    1  LIG  -0.2550   0.0862 
12    C7      -1.1230  -35.3990   21.1890 C.ar    1  LIG  -0.0321  -0.1500 
13    H4      -1.7552  -34.6955   21.7041 H       1  LIG   0.1623   0.1500 
14    C8      -1.2960  -35.6300   19.8690 C.ar    1  LIG  -0.2723  -0.1500 
15    H5      -2.0662  -35.1073   19.3273 H       1  LIG   0.1522   0.1500 
16    C9      -0.4670  -36.5450   19.2400 C.ar    1  LIG   0.4373   0.1600 
17    H6      -0.5947  -36.7554   18.1915 H       1  LIG   0.0280   0.1500 
18    N3       0.5220  -37.2120   19.8740 N.ar    1  LIG  -0.6893  -0.6200 
19    C10      0.7040  -36.9790   21.1800 C.ar    1  LIG   0.6480   0.4100 
20    N4       1.7670  -37.6730   21.8260 N.pl3   1  LIG  -0.6924  -0.3690 
21    C11      2.7540  -36.8570   22.5840 C.ar    1  LIG   0.5805   0.4100 
22    C12      2.9040  -34.5090   25.6010 C.3     1  LIG  -0.0620   0.1435 
23    H7       2.2235  -33.7630   25.2820 H       1  LIG   0.0570   0.0000 
24    H8       2.4436  -35.1154   26.3371 H       1  LIG   0.0495   0.0000 
25    H9       3.7654  -34.0491   26.0108 H       1  LIG   0.0519   0.0000 
26    O1      -1.2400  -35.9060   23.9770 O.2     1  LIG  -0.6361  -0.5700 
27    C13      2.3440  -38.7570   21.0360 C.3     1  LIG   0.1354   0.0690 
28    H10      3.1238  -38.3754   20.4296 H       1  LIG   0.0981   0.1000 
29    C14      2.9380  -39.8900   21.8010 C.3     1  LIG  -0.1181  -0.2000 
30    H11      3.8890  -40.1268   21.3997 H       1  LIG   0.0732   0.1000 
31    H12      3.0430  -39.6129   22.8177 H       1  LIG   0.0789   0.1000 
32    C15      1.6390  -40.0610   21.0880 C.3     1  LIG  -0.1196  -0.2000 
33    H13      0.6832  -39.9283   21.5242 H       1  LIG   0.0807   0.1000 
34    H14      1.5292  -40.4423   20.1061 H       1  LIG   0.0733   0.1000 
@<TRIPOS>BOND
1     2     1     ar
2     3     2     1
3     4     2     ar
4     5     4     1
5     6     4     ar
6     7     6     ar
7     8     7     1
8     9     8     1
9     10    8     1
10    11    10    1
11    12    11    ar
12    13    12    1
13    14    12    ar
14    15    14    1
15    16    14    ar
16    17    16    1
17    18    16    ar
18    19    11    ar
19    19    18    ar
20    20    19    1
21    21    1     ar
22    21    7     ar
23    21    20    1
24    22    6     1
25    23    22    1
26    24    22    1
27    25    22    1
28    26    10    2
29    27    20    1
30    28    27    1
31    29    27    1
32    30    29    1
33    31    29    1
34    32    27    1
35    32    29    1
36    33    32    1
37    34    32    1
@<TRIPOS>SUBSTRUCTURE
1   LIG    1    
 
########## Name        : 1VRT.lig
########## Description : AM1BCC_CHARGES =  -0.0002 ORIGINAL_CHARGES =  -0.0000

@<TRIPOS>MOLECULE
1VRT.lig
34    37    1     0     0    
SMALL
USER_CHARGES
@<TRIPOS>ATOM
1     N1       4.0540  -36.9310   22.2210 N.ar    1  LIG  -0.6650  -0.6200 
2     C1       4.9660  -36.2380   22.9390 C.ar    1  LIG   0.3947   0.1600 
3     H1       6.0082  -36.2811   22.6707 H       1  LIG   0.0281   0.1500 
4     C2       4.6240  -35.4500   24.0360 C.ar    1  LIG  -0.2334  -0.1500 
5     H2       5.3884  -34.9151   24.5740 H       1  LIG   0.1480   0.1500 
6     C3       3.3050  -35.3690   24.4150 C.ar    1  LIG  -0.0698  -0.1435 
7     C4       2.3460  -36.0770   23.6860 C.ar    1  LIG  -0.0398   0.1170 
8     N2       0.9890  -36.0280   24.1030 N.am    1  LIG  -0.4596  -0.5470 
9     H3       0.7643  -35.9928   25.0860 H       1  LIG   0.3311   0.3700 
10    C5      -0.1450  -36.0180   23.4080 C.2     1  LIG   0.7361   0.5438 
11    C6      -0.1190  -36.0770   21.8860 C.ar    1  LIG  -0.2550   0.0862 
12    C7      -1.1230  -35.3990   21.1890 C.ar    1  LIG  -0.0321  -0.1500 
13    H4      -1.7552  -34.6955   21.7041 H       1  LIG   0.1623   0.1500 
14    C8      -1.2960  -35.6300   19.8690 C.ar    1  LIG  -0.2723  -0.1500 
15    H5      -2.0662  -35.1073   19.3273 H       1  LIG   0.1522   0.1500 
16    C9      -0.4670  -36.5450   19.2400 C.ar    1  LIG   0.4373   0.1600 
17    H6      -0.5947  -36.7554   18.1915 H       1  LIG   0.0280   0.1500 
18    N3       0.5220  -37.2120   19.8740 N.ar    1  LIG  -0.6893  -0.6200 
19    C10      0.7040  -36.9790   21.1800 C.ar    1  LIG   0.6480   0.4100 
20    N4       1.7670  -37.6730   21.8260 N.pl3   1  LIG  -0.6924  -0.3690 
21    C11      2.7540  -36.8570   22.5840 C.ar    1  LIG   0.5805   0.4100 
22    C12      2.9040  -34.5090   25.6010 C.3     1  LIG  -0.0620   0.1435 
23    H7       2.2235  -33.7630   25.2820 H       1  LIG   0.0570   0.0000 
24    H8       2.4436  -35.1154   26.3371 H       1  LIG   0.0495   0.0000 
25    H9       3.7654  -34.0491   26.0108 H       1  LIG   0.0519   0.0000 
26    O1      -1.2400  -35.9060   23.9770 O.2     1  LIG  -0.6361  -0.5700 
27    C13      2.3440  -38.7570   21.0360 C.3     1  LIG   0.1354   0.0690 
28    H10      3.1238  -38.3754   20.4296 H       1  LIG   0.0981   0.1000 
29    C14      2.9380  -39.8900   21.8010 C.3     1  LIG  -0.1181  -0.2000 
30    H11      3.8890  -40.1268   21.3997 H       1  LIG   0.0732   0.1000 
31    H12      3.0430  -39.6129   22.8177 H       1  LIG   0.0789   0.1000 
32    C15      1.6390  -40.0610   21.0880 C.3     1  LIG  -0.1196  -0.2000 
33    H13      0.6832  -39.9283   21.5242 H       1  LIG   0.0807   0.1000 
34    H14      1.5292  -40.4423   20.1061 H       1  LIG   0.0733   0.1000 
@<TRIPOS>BOND
1     2     1     ar
2     3     2     1
3     4     2     ar
4     5     4     1
5     6     4     ar
6     7     6     ar
7     8     7     1
8     9     8     1
9     10    8     1
10    11    10    1
11    12    11    ar
12    13    12    1
13    14    12    ar
14    15    14    1
15    16    14    ar
16    17    16    1
17    18    16    ar
18    19    11    ar
19    19    18    ar
20    20    19    1
21    21    1     ar
22    21    7     ar
23    21    20    1
24    22    6     1
25    23    22    1
26    24    22    1
27    25    22    1
28    26    10    2
29    27    20    1
30    28    27    1
31    29    27    1
32    30    29    1
33    31    29    1
34    32    27    1
35    32    29    1
36    33    32    1
37    34    32    1
@<TRIPOS>SUBSTRUCTURE
1   LIG    1    
 
########## Name        : 1VRT.lig
########## Description : AM1BCC_CHARGES =  -0.0002 ORIGINAL_CHARGES =  -0.0000

@<TRIPOS>MOLECULE
1VRT.lig
34    37    1     0     0    
SMALL
USER_CHARGES
@<TRIPOS>ATOM
1     N1       4.0540  -36.9310   22.2210 N.ar    1  LIG  -0.6650  -0.6200 
2     C1       4.9660  -36.2380   22.9390 C.ar    1  LIG   0.3947   0.1600 
3     H1       6.0082  -36.2811   22.6707 H       1  LIG   0.0281   0.1500 
4     C2       4.6240  -35.4500   24.0360 C.ar    1  LIG  -0.2334  -0.1500 
5     H2       5.3884  -34.9151   24.5740 H       1  LIG   0.1480   0.1500 
6     C3       3.3050  -35.3690   24.4150 C.ar    1  LIG  -0.0698  -0.1435 
7     C4       2.3460  -36.0770   23.6860 C.ar    1  LIG  -0.0398   0.1170 
8     N2       0.9890  -36.0280   24.1030 N.am    1  LIG  -0.4596  -0.5470 
9     H3       0.7643  -35.9928   25.0860 H       1  LIG   0.3311   0.3700 
10    C5      -0.1450  -36.0180   23.4080 C.2     1  LIG   0.7361   0.5438 
11    C6      -0.1190  -36.0770   21.8860 C.ar    1  LIG  -0.2550   0.0862 
12    C7      -1.1230  -35.3990   21.1890 C.ar    1  LIG  -0.0321  -0.1500 
13    H4      -1.7552  -34.6955   21.7041 H       1  LIG   0.1623   0.1500 
14    C8      -1.2960  -35.6300   19.8690 C.ar    1  LIG  -0.2723  -0.1500 
15    H5      -2.0662  -35.1073   19.3273 H       1  LIG   0.1522   0.1500 
16    C9      -0.4670  -36.5450   19.2400 C.ar    1  LIG   0.4373   0.1600 
17    H6      -0.5947  -36.7554   18.1915 H       1  LIG   0.0280   0.1500 
18    N3       0.5220  -37.2120   19.8740 N.ar    1  LIG  -0.6893  -0.6200 
19    C10      0.7040  -36.9790   21.1800 C.ar    1  LIG   0.6480   0.4100 
20    N4       1.7670  -37.6730   21.8260 N.pl3   1  LIG  -0.6924  -0.3690 
21    C11      2.7540  -36.8570   22.5840 C.ar    1  LIG   0.5805   0.4100 
22    C12      2.9040  -34.5090   25.6010 C.3     1  LIG  -0.0620   0.1435 
23    H7       2.2235  -33.7630   25.2820 H       1  LIG   0.0570   0.0000 
24    H8       2.4436  -35.1154   26.3371 H       1  LIG   0.0495   0.0000 
25    H9       3.7654  -34.0491   26.0108 H       1  LIG   0.0519   0.0000 
26    O1      -1.2400  -35.9060   23.9770 O.2     1  LIG  -0.6361  -0.5700 
27    C13      2.3440  -38.7570   21.0360 C.3     1  LIG   0.1354   0.0690 
28    H10      3.1238  -38.3754   20.4296 H       1  LIG   0.0981   0.1000 
29    C14      2.9380  -39.8900   21.8010 C.3     1  LIG  -0.1181  -0.2000 
30    H11      3.8890  -40.1268   21.3997 H       1  LIG   0.0732   0.1000 
31    H12      3.0430  -39.6129   22.8177 H       1  LIG   0.0789   0.1000 
32    C15      1.6390  -40.0610   21.0880 C.3     1  LIG  -0.1196  -0.2000 
33    H13      0.6832  -39.9283   21.5242 H       1  LIG   0.0807   0.1000 
34    H14      1.5292  -40.4423   20.1061 H       1  LIG   0.0733   0.1000 
@<TRIPOS>BOND
1     2     1     ar
2     3     2     1
3     4     2     ar
4     5     4     1
5     6     4     ar
6     7     6     ar
7     8     7     1
8     9     8     1
9     10    8     1
10    11    10    1
11    12    11    ar
12    13    12    1
13    14    12    ar
14    15    14    1
15    16    14    ar
16    17    16    1
17    18    16    ar
18    19    11    ar
19    19    18    ar
20    20    19    1
21    21    1     ar
22    21    7     ar
23    21    20    1
24    22    6     1
25    23    22    1
26    24    22    1
27    25    22    1
28    26    10    2
29    27    20    1
30    28    27    1
31    29    27    1
32    30    29    1
33    31    29    1
34    32    27    1
35    32    29    1
36    33    32    1
37    34    32    1
@<TRIPOS>SUBSTRUCTURE
1   LIG    1    
 
########## Name        : 1VRT.lig
########## Description : AM1BCC_CHARGES =  -0.0002 ORIGINAL_CHARGES =  -0.0000

@<TRIPOS>MOLECULE
1VRT.lig
34    37    1     0     0    
SMALL
USER_CHARGES
@<TRIPOS>ATOM
1     N1       4.0540  -36.9310   22.2210 N.ar    1  LIG  -0.6650  -0.6200 
2     C1       4.9660  -36.2380   22.9390 C.ar    1  LIG   0.3947   0.1600 
3     H1       6.0082  -36.2811   22.6707 H       1  LIG   0.0281   0.1500 
4     C2       4.6240  -35.4500   24.0360 C.ar    1  LIG  -0.2334  -0.1500 
5     H2       5.3884  -34.9151   24.5740 H       1  LIG   0.1480   0.1500 
6     C3       3.3050  -35.3690   24.4150 C.ar    1  LIG  -0.0698  -0.1435 
7     C4       2.3460  -36.0770   23.6860 C.ar    1  LIG  -0.0398   0.1170 
8     N2       0.9890  -36.0280   24.1030 N.am    1  LIG  -0.4596  -0.5470 
9     H3       0.7643  -35.9928   25.0860 H       1  LIG   0.3311   0.3700 
10    C5      -0.1450  -36.0180   23.4080 C.2     1  LIG   0.7361   0.5438 
11    C6      -0.1190  -36.0770   21.8860 C.ar    1  LIG  -0.2550   0.0862 
12    C7      -1.1230  -35.3990   21.1890 C.ar    1  LIG  -0.0321  -0.1500 
13    H4      -1.7552  -34.6955   21.7041 H       1  LIG   0.1623   0.1500 
14    C8      -1.2960  -35.6300   19.8690 C.ar    1  LIG  -0.2723  -0.1500 
15    H5      -2.0662  -35.1073   19.3273 H       1  LIG   0.1522   0.1500 
16    C9      -0.4670  -36.5450   19.2400 C.ar    1  LIG   0.4373   0.1600 
17    H6      -0.5947  -36.7554   18.1915 H       1  LIG   0.0280   0.1500 
18    N3       0.5220  -37.2120   19.8740 N.ar    1  LIG  -0.6893  -0.6200 
19    C10      0.7040  -36.9790   21.1800 C.ar    1  LIG   0.6480   0.4100 
20    N4       1.7670  -37.6730   21.8260 N.pl3   1  LIG  -0.6924  -0.3690 
21    C11      2.7540  -36.8570   22.5840 C.ar    1  LIG   0.5805   0.4100 
22    C12      2.9040  -34.5090   25.6010 C.3     1  LIG  -0.0620   0.1435 
23    H7       2.2235  -33.7630   25.2820 H       1  LIG   0.0570   0.0000 
24    H8       2.4436  -35.1154   26.3371 H       1  LIG   0.0495   0.0000 
25    H9       3.7654  -34.0491   26.0108 H       1  LIG   0.0519   0.0000 
26    O1      -1.2400  -35.9060   23.9770 O.2     1  LIG  -0.6361  -0.5700 
27    C13      2.3440  -38.7570   21.0360 C.3     1  LIG   0.1354   0.0690 
28    H10      3.1238  -38.3754   20.4296 H       1  LIG   0.0981   0.1000 
29    C14      2.9380  -39.8900   21.8010 C.3     1  LIG  -0.1181  -0.2000 
30    H11      3.8890  -40.1268   21.3997 H       1  LIG   0.0732   0.1000 
31    H12      3.0430  -39.6129   22.8177 H       1  LIG   0.0789   0.1000 
32    C15      1.6390  -40.0610   21.0880 C.3     1  LIG  -0.1196  -0.2000 
33    H13      0.6832  -39.9283   21.5242 H       1  LIG   0.0807   0.1000 
34    H14      1.5292  -40.4423   20.1061 H       1  LIG   0.0733   0.1000 
@<TRIPOS>BOND
1     2     1     ar
2     3     2     1
3     4     2     ar
4     5     4     1
5     6     4     ar
6     7     6     ar
7     8     7     1
8     9     8     1
9     10    8     1
10    11    10    1
11    12    11    ar
12    13    12    1
13    14    12    ar
14    15    14    1
15    16    14    ar
16    17    16    1
17    18    16    ar
18    19    11    ar
19    19    18    ar
20    20    19    1
21    21    1     ar
22    21    7     ar
23    21    20    1
24    22    6     1
25    23    22    1
26    24    22    1
27    25    22    1
28    26    10    2
29    27    20    1
30    28    27    1
31    29    27    1
32    30    29    1
33    31    29    1
34    32    27    1
35    32    29    1
36    33    32    1
37    34    32    1
@<TRIPOS>SUBSTRUCTURE
1   LIG    1    
 
########## Name        : 1VRT.lig
########## Description : AM1BCC_CHARGES =  -0.0002 ORIGINAL_CHARGES =  -0.0000

@<TRIPOS>MOLECULE
1VRT.lig
34    37    1     0     0    
SMALL
USER_CHARGES
@<TRIPOS>ATOM
1     N1       4.0540  -36.9310   22.2210 N.ar    1  LIG  -0.6650  -0.6200 
2     C1       4.9660  -36.2380   22.9390 C.ar    1  LIG   0.3947   0.1600 
3     H1       6.0082  -36.2811   22.6707 H       1  LIG   0.0281   0.1500 
4     C2       4.6240  -35.4500   24.0360 C.ar    1  LIG  -0.2334  -0.1500 
5     H2       5.3884  -34.9151   24.5740 H       1  LIG   0.1480   0.1500 
6     C3       3.3050  -35.3690   24.4150 C.ar    1  LIG  -0.0698  -0.1435 
7     C4       2.3460  -36.0770   23.6860 C.ar    1  LIG  -0.0398   0.1170 
8     N2       0.9890  -36.0280   24.1030 N.am    1  LIG  -0.4596  -0.5470 
9     H3       0.7643  -35.9928   25.0860 H       1  LIG   0.3311   0.3700 
10    C5      -0.1450  -36.0180   23.4080 C.2     1  LIG   0.7361   0.5438 
11    C6      -0.1190  -36.0770   21.8860 C.ar    1  LIG  -0.2550   0.0862 
12    C7      -1.1230  -35.3990   21.1890 C.ar    1  LIG  -0.0321  -0.1500 
13    H4      -1.7552  -34.6955   21.7041 H       1  LIG   0.1623   0.1500 
14    C8      -1.2960  -35.6300   19.8690 C.ar    1  LIG  -0.2723  -0.1500 
15    H5      -2.0662  -35.1073   19.3273 H       1  LIG   0.1522   0.1500 
16    C9      -0.4670  -36.5450   19.2400 C.ar    1  LIG   0.4373   0.1600 
17    H6      -0.5947  -36.7554   18.1915 H       1  LIG   0.0280   0.1500 
18    N3       0.5220  -37.2120   19.8740 N.ar    1  LIG  -0.6893  -0.6200 
19    C10      0.7040  -36.9790   21.1800 C.ar    1  LIG   0.6480   0.4100 
20    N4       1.7670  -37.6730   21.8260 N.pl3   1  LIG  -0.6924  -0.3690 
21    C11      2.7540  -36.8570   22.5840 C.ar    1  LIG   0.5805   0.4100 
22    C12      2.9040  -34.5090   25.6010 C.3     1  LIG  -0.0620   0.1435 
23    H7       2.2235  -33.7630   25.2820 H       1  LIG   0.0570   0.0000 
24    H8       2.4436  -35.1154   26.3371 H       1  LIG   0.0495   0.0000 
25    H9       3.7654  -34.0491   26.0108 H       1  LIG   0.0519   0.0000 
26    O1      -1.2400  -35.9060   23.9770 O.2     1  LIG  -0.6361  -0.5700 
27    C13      2.3440  -38.7570   21.0360 C.3     1  LIG   0.1354   0.0690 
28    H10      3.1238  -38.3754   20.4296 H       1  LIG   0.0981   0.1000 
29    C14      2.9380  -39.8900   21.8010 C.3     1  LIG  -0.1181  -0.2000 
30    H11      3.8890  -40.1268   21.3997 H       1  LIG   0.0732   0.1000 
31    H12      3.0430  -39.6129   22.8177 H       1  LIG   0.0789   0.1000 
32    C15      1.6390  -40.0610   21.0880 C.3     1  LIG  -0.1196  -0.2000 
33    H13      0.6832  -39.9283   21.5242 H       1  LIG   0.0807   0.1000 
34    H14      1.5292  -40.4423   20.1061 H       1  LIG   0.0733   0.1000 
@<TRIPOS>BOND
1     2     1     ar
2     3     2     1
3     4     2     ar
4     5     4     1
5     6     4     ar
6     7     6     ar
7     8     7     1
8     9     8     1
9     10    8     1
10    11    10    1
11    12    11    ar
12    13    12    1
13    14    12    ar
14    15    14    1
15    16    14    ar
16    17    16    1
17    18    16    ar
18    19    11    ar
19    19    18    ar
20    20    19    1
21    21    1     ar
22    21    7     ar
23    21    20    1
24    22    6     1
25    23    22    1
26    24    22    1
27    25    22    1
28    26    10    2
29    27    20    1
30    28    27    1
31    29    27    1
32    30    29    1
33    31    29    1
34    32    27    1
35    32    29    1
36    33    32    1
37    34    32    1
@<TRIPOS>SUBSTRUCTURE
1   LIG    1    
 
########## Name        : 1VRT.lig
########## Description : AM1BCC_CHARGES =  -0.0002 ORIGINAL_CHARGES =  -0.0000

@<TRIPOS>MOLECULE
1VRT.lig
34    37    1     0     0    
SMALL
USER_CHARGES
@<TRIPOS>ATOM
1     N1       4.0540  -36.9310   22.2210 N.ar    1  LIG  -0.6650  -0.6200 
2     C1       4.9660  -36.2380   22.9390 C.ar    1  LIG   0.3947   0.1600 
3     H1       6.0082  -36.2811   22.6707 H       1  LIG   0.0281   0.1500 
4     C2       4.6240  -35.4500   24.0360 C.ar    1  LIG  -0.2334  -0.1500 
5     H2       5.3884  -34.9151   24.5740 H       1  LIG   0.1480   0.1500 
6     C3       3.3050  -35.3690   24.4150 C.ar    1  LIG  -0.0698  -0.1435 
7     C4       2.3460  -36.0770   23.6860 C.ar    1  LIG  -0.0398   0.1170 
8     N2       0.9890  -36.0280   24.1030 N.am    1  LIG  -0.4596  -0.5470 
9     H3       0.7643  -35.9928   25.0860 H       1  LIG   0.3311   0.3700 
10    C5      -0.1450  -36.0180   23.4080 C.2     1  LIG   0.7361   0.5438 
11    C6      -0.1190  -36.0770   21.8860 C.ar    1  LIG  -0.2550   0.0862 
12    C7      -1.1230  -35.3990   21.1890 C.ar    1  LIG  -0.0321  -0.1500 
13    H4      -1.7552  -34.6955   21.7041 H       1  LIG   0.1623   0.1500 
14    C8      -1.2960  -35.6300   19.8690 C.ar    1  LIG  -0.2723  -0.1500 
15    H5      -2.0662  -35.1073   19.3273 H       1  LIG   0.1522   0.1500 
16    C9      -0.4670  -36.5450   19.2400 C.ar    1  LIG   0.4373   0.1600 
17    H6      -0.5947  -36.7554   18.1915 H       1  LIG   0.0280   0.1500 
18    N3       0.5220  -37.2120   19.8740 N.ar    1  LIG  -0.6893  -0.6200 
19    C10      0.7040  -36.9790   21.1800 C.ar    1  LIG   0.6480   0.4100 
20    N4       1.7670  -37.6730   21.8260 N.pl3   1  LIG  -0.6924  -0.3690 
21    C11      2.7540  -36.8570   22.5840 C.ar    1  LIG   0.5805   0.4100 
22    C12      2.9040  -34.5090   25.6010 C.3     1  LIG  -0.0620   0.1435 
23    H7       2.2235  -33.7630   25.2820 H       1  LIG   0.0570   0.0000 
24    H8       2.4436  -35.1154   26.3371 H       1  LIG   0.0495   0.0000 
25    H9       3.7654  -34.0491   26.0108 H       1  LIG   0.0519   0.0000 
26    O1      -1.2400  -35.9060   23.9770 O.2     1  LIG  -0.6361  -0.5700 
27    C13      2.3440  -38.7570   21.0360 C.3     1  LIG   0.1354   0.0690 
28    H10      3.1238  -38.3754   20.4296 H       1  LIG   0.0981   0.1000 
29    C14      2.9380  -39.8900   21.8010 C.3     1  LIG  -0.1181  -0.2000 
30    H11      3.8890  -40.1268   21.3997 H       1  LIG   0.0732   0.1000 
31    H12      3.0430  -39.6129   22.8177 H       1  LIG   0.0789   0.1000 
32    C15      1.6390  -40.0610   21.0880 C.3     1  LIG  -0.1196  -0.2000 
33    H13      0.6832  -39.9283   21.5242 H       1  LIG   0.0807   0.1000 
34    H14      1.5292  -40.4423   20.1061 H       1  LIG   0.0733   0.1000 
@<TRIPOS>BOND
1     2     1     ar
2     3     2     1
3     4     2     ar
4     5     4     1
5     6     4     ar
6     7     6     ar
7     8     7     1
8     9     8     1
9     10    8     1
10    11    10    1
11    12    11    ar
12    13    12    1
13    14    12    ar
14    15    14    1
15    16    14    ar
16    17    16    1
17    18    16    ar
18    19    11    ar
19    19    18    ar
20    20    19    1
21    21    1     ar
22    21    7     ar
23    21    20    1
24    22    6     1
25    23    22    1
26    24    22    1
27    25    22    1
28    26    10    2
29    27    20    1
30    28    27    1
31    29    27    1
32    30    29    1
33    31    29    1
34    32    27    1
35    32    29    1
36    33    32    1
37    34    32    1
@<TRIPOS>SUBSTRUCTURE
1   LIG    1    
 
########## Name        : 1VRT.lig
########## Description : AM1BCC_CHARGES =  -0.0002 ORIGINAL_CHARGES =  -0.0000

@<TRIPOS>MOLECULE
1VRT.lig
34    37    1     0     0    
SMALL
USER_CHARGES
@<TRIPOS>ATOM
1     N1       4.0540  -36.9310   22.2210 N.ar    1  LIG  -0.6650  -0.6200 
2     C1       4.9660  -36.2380   22.9390 C.ar    1  LIG   0.3947   0.1600 
3     H1       6.0082  -36.2811   22.6707 H       1  LIG   0.0281   0.1500 
4     C2       4.6240  -35.4500   24.0360 C.ar    1  LIG  -0.2334  -0.1500 
5     H2       5.3884  -34.9151   24.5740 H       1  LIG   0.1480   0.1500 
6     C3       3.3050  -35.3690   24.4150 C.ar    1  LIG  -0.0698  -0.1435 
7     C4       2.3460  -36.0770   23.6860 C.ar    1  LIG  -0.0398   0.1170 
8     N2       0.9890  -36.0280   24.1030 N.am    1  LIG  -0.4596  -0.5470 
9     H3       0.7643  -35.9928   25.0860 H       1  LIG   0.3311   0.3700 
10    C5      -0.1450  -36.0180   23.4080 C.2     1  LIG   0.7361   0.5438 
11    C6      -0.1190  -36.0770   21.8860 C.ar    1  LIG  -0.2550   0.0862 
12    C7      -1.1230  -35.3990   21.1890 C.ar    1  LIG  -0.0321  -0.1500 
13    H4      -1.7552  -34.6955   21.7041 H       1  LIG   0.1623   0.1500 
14    C8      -1.2960  -35.6300   19.8690 C.ar    1  LIG  -0.2723  -0.1500 
15    H5      -2.0662  -35.1073   19.3273 H       1  LIG   0.1522   0.1500 
16    C9      -0.4670  -36.5450   19.2400 C.ar    1  LIG   0.4373   0.1600 
17    H6      -0.5947  -36.7554   18.1915 H       1  LIG   0.0280   0.1500 
18    N3       0.5220  -37.2120   19.8740 N.ar    1  LIG  -0.6893  -0.6200 
19    C10      0.7040  -36.9790   21.1800 C.ar    1  LIG   0.6480   0.4100 
20    N4       1.7670  -37.6730   21.8260 N.pl3   1  LIG  -0.6924  -0.3690 
21    C11      2.7540  -36.8570   22.5840 C.ar    1  LIG   0.5805   0.4100 
22    C12      2.9040  -34.5090   25.6010 C.3     1  LIG  -0.0620   0.1435 
23    H7       2.2235  -33.7630   25.2820 H       1  LIG   0.0570   0.0000 
24    H8       2.4436  -35.1154   26.3371 H       1  LIG   0.0495   0.0000 
25    H9       3.7654  -34.0491   26.0108 H       1  LIG   0.0519   0.0000 
26    O1      -1.2400  -35.9060   23.9770 O.2     1  LIG  -0.6361  -0.5700 
27    C13      2.3440  -38.7570   21.0360 C.3     1  LIG   0.1354   0.0690 
28    H10      3.1238  -38.3754   20.4296 H       1  LIG   0.0981   0.1000 
29    C14      2.9380  -39.8900   21.8010 C.3     1  LIG  -0.1181  -0.2000 
30    H11      3.8890  -40.1268   21.3997 H       1  LIG   0.0732   0.1000 
31    H12      3.0430  -39.6129   22.8177 H       1  LIG   0.0789   0.1000 
32    C15      1.6390  -40.0610   21.0880 C.3     1  LIG  -0.1196  -0.2000 
33    H13      0.6832  -39.9283   21.5242 H       1  LIG   0.0807   0.1000 
34    H14      1.5292  -40.4423   20.1061 H       1  LIG   0.0733   0.1000 
@<TRIPOS>BOND
1     2     1     ar
2     3     2     1
3     4     2     ar
4     5     4     1
5     6     4     ar
6     7     6     ar
7     8     7     1
8     9     8     1
9     10    8     1
10    11    10    1
11    12    11    ar
12    13    12    1
13    14    12    ar
14    15    14    1
15    16    14    ar
16    17    16    1
17    18    16    ar
18    19    11    ar
19    19    18    ar
20    20    19    1
21    21    1     ar
22    21    7     ar
23    21    20    1
24    22    6     1
25    23    22    1
26    24    22    1
27    25    22    1
28    26    10    2
29    27    20    1
30    28    27    1
31    29    27    1
32    30    29    1
33    31    29    1
34    32    27    1
35    32    29    1
36    33    32    1
37    34    32    1
@<TRIPOS>SUBSTRUCTURE
1   LIG    1    
 
########## Name        : 1VRT.lig
########## Description : AM1BCC_CHARGES =  -0.0002 ORIGINAL_CHARGES =  -0.0000

@<TRIPOS>MOLECULE
1VRT.lig
34    37    1     0     0    
SMALL
USER_CHARGES
@<TRIPOS>ATOM
1     N1       4.0540  -36.9310   22.2210 N.ar    1  LIG  -0.6650  -0.6200 
2     C1       4.9660  -36.2380   22.9390 C.ar    1  LIG   0.3947   0.1600 
3     H1       6.0082  -36.2811   22.6707 H       1  LIG   0.0281   0.1500 
4     C2       4.6240  -35.4500   24.0360 C.ar    1  LIG  -0.2334  -0.1500 
5     H2       5.3884  -34.9151   24.5740 H       1  LIG   0.1480   0.1500 
6     C3       3.3050  -35.3690   24.4150 C.ar    1  LIG  -0.0698  -0.1435 
7     C4       2.3460  -36.0770   23.6860 C.ar    1  LIG  -0.0398   0.1170 
8     N2       0.9890  -36.0280   24.1030 N.am    1  LIG  -0.4596  -0.5470 
9     H3       0.7643  -35.9928   25.0860 H       1  LIG   0.3311   0.3700 
10    C5      -0.1450  -36.0180   23.4080 C.2     1  LIG   0.7361   0.5438 
11    C6      -0.1190  -36.0770   21.8860 C.ar    1  LIG  -0.2550   0.0862 
12    C7      -1.1230  -35.3990   21.1890 C.ar    1  LIG  -0.0321  -0.1500 
13    H4      -1.7552  -34.6955   21.7041 H       1  LIG   0.1623   0.1500 
14    C8      -1.2960  -35.6300   19.8690 C.ar    1  LIG  -0.2723  -0.1500 
15    H5      -2.0662  -35.1073   19.3273 H       1  LIG   0.1522   0.1500 
16    C9      -0.4670  -36.5450   19.2400 C.ar    1  LIG   0.4373   0.1600 
17    H6      -0.5947  -36.7554   18.1915 H       1  LIG   0.0280   0.1500 
18    N3       0.5220  -37.2120   19.8740 N.ar    1  LIG  -0.6893  -0.6200 
19    C10      0.7040  -36.9790   21.1800 C.ar    1  LIG   0.6480   0.4100 
20    N4       1.7670  -37.6730   21.8260 N.pl3   1  LIG  -0.6924  -0.3690 
21    C11      2.7540  -36.8570   22.5840 C.ar    1  LIG   0.5805   0.4100 
22    C12      2.9040  -34.5090   25.6010 C.3     1  LIG  -0.0620   0.1435 
23    H7       2.2235  -33.7630   25.2820 H       1  LIG   0.0570   0.0000 
24    H8       2.4436  -35.1154   26.3371 H       1  LIG   0.0495   0.0000 
25    H9       3.7654  -34.0491   26.0108 H       1  LIG   0.0519   0.0000 
26    O1      -1.2400  -35.9060   23.9770 O.2     1  LIG  -0.6361  -0.5700 
27    C13      2.3440  -38.7570   21.0360 C.3     1  LIG   0.1354   0.0690 
28    H10      3.1238  -38.3754   20.4296 H       1  LIG   0.0981   0.1000 
29    C14      2.9380  -39.8900   21.8010 C.3     1  LIG  -0.1181  -0.2000 
30    H11      3.8890  -40.1268   21.3997 H       1  LIG   0.0732   0.1000 
31    H12      3.0430  -39.6129   22.8177 H       1  LIG   0.0789   0.1000 
32    C15      1.6390  -40.0610   21.0880 C.3     1  LIG  -0.1196  -0.2000 
33    H13      0.6832  -39.9283   21.5242 H       1  LIG   0.0807   0.1000 
34    H14      1.5292  -40.4423   20.1061 H       1  LIG   0.0733   0.1000 
@<TRIPOS>BOND
1     2     1     ar
2     3     2     1
3     4     2     ar
4     5     4     1
5     6     4     ar
6     7     6     ar
7     8     7     1
8     9     8     1
9     10    8     1
10    11    10    1
11    12    11    ar
12    13    12    1
13    14    12    ar
14    15    14    1
15    16    14    ar
16    17    16    1
17    18    16    ar
18    19    11    ar
19    19    18    ar
20    20    19    1
21    21    1     ar
22    21    7     ar
23    21    20    1
24    22    6     1
25    23    22    1
26    24    22    1
27    25    22    1
28    26    10    2
29    27    20    1
30    28    27    1
31    29    27    1
32    30    29    1
33    31    29    1
34    32    27    1
35    32    29    1
36    33    32    1
37    34    32    1
@<TRIPOS>SUBSTRUCTURE
1   LIG    1    
 
########## Name        : 1VRT.lig
########## Description : AM1BCC_CHARGES =  -0.0002 ORIGINAL_CHARGES =  -0.0000

@<TRIPOS>MOLECULE
1VRT.lig
34    37    1     0     0    
SMALL
USER_CHARGES
@<TRIPOS>ATOM
1     N1       4.0540  -36.9310   22.2210 N.ar    1  LIG  -0.6650  -0.6200 
2     C1       4.9660  -36.2380   22.9390 C.ar    1  LIG   0.3947   0.1600 
3     H1       6.0082  -36.2811   22.6707 H       1  LIG   0.0281   0.1500 
4     C2       4.6240  -35.4500   24.0360 C.ar    1  LIG  -0.2334  -0.1500 
5     H2       5.3884  -34.9151   24.5740 H       1  LIG   0.1480   0.1500 
6     C3       3.3050  -35.3690   24.4150 C.ar    1  LIG  -0.0698  -0.1435 
7     C4       2.3460  -36.0770   23.6860 C.ar    1  LIG  -0.0398   0.1170 
8     N2       0.9890  -36.0280   24.1030 N.am    1  LIG  -0.4596  -0.5470 
9     H3       0.7643  -35.9928   25.0860 H       1  LIG   0.3311   0.3700 
10    C5      -0.1450  -36.0180   23.4080 C.2     1  LIG   0.7361   0.5438 
11    C6      -0.1190  -36.0770   21.8860 C.ar    1  LIG  -0.2550   0.0862 
12    C7      -1.1230  -35.3990   21.1890 C.ar    1  LIG  -0.0321  -0.1500 
13    H4      -1.7552  -34.6955   21.7041 H       1  LIG   0.1623   0.1500 
14    C8      -1.2960  -35.6300   19.8690 C.ar    1  LIG  -0.2723  -0.1500 
15    H5      -2.0662  -35.1073   19.3273 H       1  LIG   0.1522   0.1500 
16    C9      -0.4670  -36.5450   19.2400 C.ar    1  LIG   0.4373   0.1600 
17    H6      -0.5947  -36.7554   18.1915 H       1  LIG   0.0280   0.1500 
18    N3       0.5220  -37.2120   19.8740 N.ar    1  LIG  -0.6893  -0.6200 
19    C10      0.7040  -36.9790   21.1800 C.ar    1  LIG   0.6480   0.4100 
20    N4       1.7670  -37.6730   21.8260 N.pl3   1  LIG  -0.6924  -0.3690 
21    C11      2.7540  -36.8570   22.5840 C.ar    1  LIG   0.5805   0.4100 
22    C12      2.9040  -34.5090   25.6010 C.3     1  LIG  -0.0620   0.1435 
23    H7       2.2235  -33.7630   25.2820 H       1  LIG   0.0570   0.0000 
24    H8       2.4436  -35.1154   26.3371 H       1  LIG   0.0495   0.0000 
25    H9       3.7654  -34.0491   26.0108 H       1  LIG   0.0519   0.0000 
26    O1      -1.2400  -35.9060   23.9770 O.2     1  LIG  -0.6361  -0.5700 
27    C13      2.3440  -38.7570   21.0360 C.3     1  LIG   0.1354   0.0690 
28    H10      3.1238  -38.3754   20.4296 H       1  LIG   0.0981   0.1000 
29    C14      2.9380  -39.8900   21.8010 C.3     1  LIG  -0.1181  -0.2000 
30    H11      3.8890  -40.1268   21.3997 H       1  LIG   0.0732   0.1000 
31    H12      3.0430  -39.6129   22.8177 H       1  LIG   0.0789   0.1000 
32    C15      1.6390  -40.0610   21.0880 C.3     1  LIG  -0.1196  -0.2000 
33    H13      0.6832  -39.9283   21.5242 H       1  LIG   0.0807   0.1000 
34    H14      1.5292  -40.4423   20.1061 H       1  LIG   0.0733   0.1000 
@<TRIPOS>BOND
1     2     1     ar
2     3     2     1
3     4     2     ar
4     5     4     1
5     6     4     ar
6     7     6     ar
7     8     7     1
8     9     8     1
9     10    8     1
10    11    10    1
11    12    11    ar
12    13    12    1
13    14    12    ar
14    15    14    1
15    16    14    ar
16    17    16    1
17    18    16    ar
18    19    11    ar
19    19    18    ar
20    20    19    1
21    21    1     ar
22    21    7     ar
23    21    20    1
24    22    6     1
25    23    22    1
26    24    22    1
27    25    22    1
28    26    10    2
29    27    20    1
30    28    27    1
31    29    27    1
32    30    29    1
33    31    29    1
34    32    27    1
35    32    29    1
36    33    32    1
37    34    32    1
@<TRIPOS>SUBSTRUCTURE
1   LIG    1    
 
########## Name        : 1VRT.lig
########## Description : AM1BCC_CHARGES =  -0.0002 ORIGINAL_CHARGES =  -0.0000

@<TRIPOS>MOLECULE
1VRT.lig
34    37    1     0     0    
SMALL
USER_CHARGES
@<TRIPOS>ATOM
1     N1       4.0540  -36.9310   22.2210 N.ar    1  LIG  -0.6650  -0.6200 
2     C1       4.9660  -36.2380   22.9390 C.ar    1  LIG   0.3947   0.1600 
3     H1       6.0082  -36.2811   22.6707 H       1  LIG   0.0281   0.1500 
4     C2       4.6240  -35.4500   24.0360 C.ar    1  LIG  -0.2334  -0.1500 
5     H2       5.3884  -34.9151   24.5740 H       1  LIG   0.1480   0.1500 
6     C3       3.3050  -35.3690   24.4150 C.ar    1  LIG  -0.0698  -0.1435 
7     C4       2.3460  -36.0770   23.6860 C.ar    1  LIG  -0.0398   0.1170 
8     N2       0.9890  -36.0280   24.1030 N.am    1  LIG  -0.4596  -0.5470 
9     H3       0.7643  -35.9928   25.0860 H       1  LIG   0.3311   0.3700 
10    C5      -0.1450  -36.0180   23.4080 C.2     1  LIG   0.7361   0.5438 
11    C6      -0.1190  -36.0770   21.8860 C.ar    1  LIG  -0.2550   0.0862 
12    C7      -1.1230  -35.3990   21.1890 C.ar    1  LIG  -0.0321  -0.1500 
13    H4      -1.7552  -34.6955   21.7041 H       1  LIG   0.1623   0.1500 
14    C8      -1.2960  -35.6300   19.8690 C.ar    1  LIG  -0.2723  -0.1500 
15    H5      -2.0662  -35.1073   19.3273 H       1  LIG   0.1522   0.1500 
16    C9      -0.4670  -36.5450   19.2400 C.ar    1  LIG   0.4373   0.1600 
17    H6      -0.5947  -36.7554   18.1915 H       1  LIG   0.0280   0.1500 
18    N3       0.5220  -37.2120   19.8740 N.ar    1  LIG  -0.6893  -0.6200 
19    C10      0.7040  -36.9790   21.1800 C.ar    1  LIG   0.6480   0.4100 
20    N4       1.7670  -37.6730   21.8260 N.pl3   1  LIG  -0.6924  -0.3690 
21    C11      2.7540  -36.8570   22.5840 C.ar    1  LIG   0.5805   0.4100 
22    C12      2.9040  -34.5090   25.6010 C.3     1  LIG  -0.0620   0.1435 
23    H7       2.2235  -33.7630   25.2820 H       1  LIG   0.0570   0.0000 
24    H8       2.4436  -35.1154   26.3371 H       1  LIG   0.0495   0.0000 
25    H9       3.7654  -34.0491   26.0108 H       1  LIG   0.0519   0.0000 
26    O1      -1.2400  -35.9060   23.9770 O.2     1  LIG  -0.6361  -0.5700 
27    C13      2.3440  -38.7570   21.0360 C.3     1  LIG   0.1354   0.0690 
28    H10      3.1238  -38.3754   20.4296 H       1  LIG   0.0981   0.1000 
29    C14      2.9380  -39.8900   21.8010 C.3     1  LIG  -0.1181  -0.2000 
30    H11      3.8890  -40.1268   21.3997 H       1  LIG   0.0732   0.1000 
31    H12      3.0430  -39.6129   22.8177 H       1  LIG   0.0789   0.1000 
32    C15      1.6390  -40.0610   21.0880 C.3     1  LIG  -0.1196  -0.2000 
33    H13      0.6832  -39.9283   21.5242 H       1  LIG   0.0807   0.1000 
34    H14      1.5292  -40.4423   20.1061 H       1  LIG   0.0733   0.1000 
@<TRIPOS>BOND
1     2     1     ar
2     3     2     1
3     4     2     ar
4     5     4     1
5     6     4     ar
6     7     6     ar
7     8     7     1
8     9     8     1
9     10    8     1
10    11    10    1
11    12    11    ar
12    13    12    1
13    14    12    ar
14    15    14    1
15    16    14    ar
16    17    16    1
17    18    16    ar
18    19    11    ar
19    19    18    ar
20    20    19    1
21    21    1     ar
22    21    7     ar
23    21    20    1
24    22    6     1
25    23    22    1
26    24    22    1
27    25    22    1
28    26    10    2
29    27    20    1
30    28    27    1
31    29    27    1
32    30    29    1
33    31    29    1
34    32    27    1
35    32    29    1
36    33    32    1
37    34    32    1
@<TRIPOS>SUBSTRUCTURE
1   LIG    1    
 
########## Name        : 1VRT.lig
########## Description : AM1BCC_CHARGES =  -0.0002 ORIGINAL_CHARGES =  -0.0000

@<TRIPOS>MOLECULE
1VRT.lig
34    37    1     0     0    
SMALL
USER_CHARGES
@<TRIPOS>ATOM
1     N1       4.0540  -36.9310   22.2210 N.ar    1  LIG  -0.6650  -0.6200 
2     C1       4.9660  -36.2380   22.9390 C.ar    1  LIG   0.3947   0.1600 
3     H1       6.0082  -36.2811   22.6707 H       1  LIG   0.0281   0.1500 
4     C2       4.6240  -35.4500   24.0360 C.ar    1  LIG  -0.2334  -0.1500 
5     H2       5.3884  -34.9151   24.5740 H       1  LIG   0.1480   0.1500 
6     C3       3.3050  -35.3690   24.4150 C.ar    1  LIG  -0.0698  -0.1435 
7     C4       2.3460  -36.0770   23.6860 C.ar    1  LIG  -0.0398   0.1170 
8     N2       0.9890  -36.0280   24.1030 N.am    1  LIG  -0.4596  -0.5470 
9     H3       0.7643  -35.9928   25.0860 H       1  LIG   0.3311   0.3700 
10    C5      -0.1450  -36.0180   23.4080 C.2     1  LIG   0.7361   0.5438 
11    C6      -0.1190  -36.0770   21.8860 C.ar    1  LIG  -0.2550   0.0862 
12    C7      -1.1230  -35.3990   21.1890 C.ar    1  LIG  -0.0321  -0.1500 
13    H4      -1.7552  -34.6955   21.7041 H       1  LIG   0.1623   0.1500 
14    C8      -1.2960  -35.6300   19.8690 C.ar    1  LIG  -0.2723  -0.1500 
15    H5      -2.0662  -35.1073   19.3273 H       1  LIG   0.1522   0.1500 
16    C9      -0.4670  -36.5450   19.2400 C.ar    1  LIG   0.4373   0.1600 
17    H6      -0.5947  -36.7554   18.1915 H       1  LIG   0.0280   0.1500 
18    N3       0.5220  -37.2120   19.8740 N.ar    1  LIG  -0.6893  -0.6200 
19    C10      0.7040  -36.9790   21.1800 C.ar    1  LIG   0.6480   0.4100 
20    N4       1.7670  -37.6730   21.8260 N.pl3   1  LIG  -0.6924  -0.3690 
21    C11      2.7540  -36.8570   22.5840 C.ar    1  LIG   0.5805   0.4100 
22    C12      2.9040  -34.5090   25.6010 C.3     1  LIG  -0.0620   0.1435 
23    H7       2.2235  -33.7630   25.2820 H       1  LIG   0.0570   0.0000 
24    H8       2.4436  -35.1154   26.3371 H       1  LIG   0.0495   0.0000 
25    H9       3.7654  -34.0491   26.0108 H       1  LIG   0.0519   0.0000 
26    O1      -1.2400  -35.9060   23.9770 O.2     1  LIG  -0.6361  -0.5700 
27    C13      2.3440  -38.7570   21.0360 C.3     1  LIG   0.1354   0.0690 
28    H10      3.1238  -38.3754   20.4296 H       1  LIG   0.0981   0.1000 
29    C14      2.9380  -39.8900   21.8010 C.3     1  LIG  -0.1181  -0.2000 
30    H11      3.8890  -40.1268   21.3997 H       1  LIG   0.0732   0.1000 
31    H12      3.0430  -39.6129   22.8177 H       1  LIG   0.0789   0.1000 
32    C15      1.6390  -40.0610   21.0880 C.3     1  LIG  -0.1196  -0.2000 
33    H13      0.6832  -39.9283   21.5242 H       1  LIG   0.0807   0.1000 
34    H14      1.5292  -40.4423   20.1061 H       1  LIG   0.0733   0.1000 
@<TRIPOS>BOND
1     2     1     ar
2     3     2     1
3     4     2     ar
4     5     4     1
5     6     4     ar
6     7     6     ar
7     8     7     1
8     9     8     1
9     10    8     1
10    11    10    1
11    12    11    ar
12    13    12    1
13    14    12    ar
14    15    14    1
15    16    14    ar
16    17    16    1
17    18    16    ar
18    19    11    ar
19    19    18    ar
20    20    19    1
21    21    1     ar
22    21    7     ar
23    21    20    1
24    22    6     1
25    23    22    1
26    24    22    1
27    25    22    1
28    26    10    2
29    27    20    1
30    28    27    1
31    29    27    1
32    30    29    1
33    31    29    1
34    32    27    1
35    32    29    1
36    33    32    1
37    34    32    1
@<TRIPOS>SUBSTRUCTURE
1   LIG    1    
 
########## Name        : 1VRT.lig
########## Description : AM1BCC_CHARGES =  -0.0002 ORIGINAL_CHARGES =  -0.0000

@<TRIPOS>MOLECULE
1VRT.lig
34    37    1     0     0    
SMALL
USER_CHARGES
@<TRIPOS>ATOM
1     N1       4.0540  -36.9310   22.2210 N.ar    1  LIG  -0.6650  -0.6200 
2     C1       4.9660  -36.2380   22.9390 C.ar    1  LIG   0.3947   0.1600 
3     H1       6.0082  -36.2811   22.6707 H       1  LIG   0.0281   0.1500 
4     C2       4.6240  -35.4500   24.0360 C.ar    1  LIG  -0.2334  -0.1500 
5     H2       5.3884  -34.9151   24.5740 H       1  LIG   0.1480   0.1500 
6     C3       3.3050  -35.3690   24.4150 C.ar    1  LIG  -0.0698  -0.1435 
7     C4       2.3460  -36.0770   23.6860 C.ar    1  LIG  -0.0398   0.1170 
8     N2       0.9890  -36.0280   24.1030 N.am    1  LIG  -0.4596  -0.5470 
9     H3       0.7643  -35.9928   25.0860 H       1  LIG   0.3311   0.3700 
10    C5      -0.1450  -36.0180   23.4080 C.2     1  LIG   0.7361   0.5438 
11    C6      -0.1190  -36.0770   21.8860 C.ar    1  LIG  -0.2550   0.0862 
12    C7      -1.1230  -35.3990   21.1890 C.ar    1  LIG  -0.0321  -0.1500 
13    H4      -1.7552  -34.6955   21.7041 H       1  LIG   0.1623   0.1500 
14    C8      -1.2960  -35.6300   19.8690 C.ar    1  LIG  -0.2723  -0.1500 
15    H5      -2.0662  -35.1073   19.3273 H       1  LIG   0.1522   0.1500 
16    C9      -0.4670  -36.5450   19.2400 C.ar    1  LIG   0.4373   0.1600 
17    H6      -0.5947  -36.7554   18.1915 H       1  LIG   0.0280   0.1500 
18    N3       0.5220  -37.2120   19.8740 N.ar    1  LIG  -0.6893  -0.6200 
19    C10      0.7040  -36.9790   21.1800 C.ar    1  LIG   0.6480   0.4100 
20    N4       1.7670  -37.6730   21.8260 N.pl3   1  LIG  -0.6924  -0.3690 
21    C11      2.7540  -36.8570   22.5840 C.ar    1  LIG   0.5805   0.4100 
22    C12      2.9040  -34.5090   25.6010 C.3     1  LIG  -0.0620   0.1435 
23    H7       2.2235  -33.7630   25.2820 H       1  LIG   0.0570   0.0000 
24    H8       2.4436  -35.1154   26.3371 H       1  LIG   0.0495   0.0000 
25    H9       3.7654  -34.0491   26.0108 H       1  LIG   0.0519   0.0000 
26    O1      -1.2400  -35.9060   23.9770 O.2     1  LIG  -0.6361  -0.5700 
27    C13      2.3440  -38.7570   21.0360 C.3     1  LIG   0.1354   0.0690 
28    H10      3.1238  -38.3754   20.4296 H       1  LIG   0.0981   0.1000 
29    C14      2.9380  -39.8900   21.8010 C.3     1  LIG  -0.1181  -0.2000 
30    H11      3.8890  -40.1268   21.3997 H       1  LIG   0.0732   0.1000 
31    H12      3.0430  -39.6129   22.8177 H       1  LIG   0.0789   0.1000 
32    C15      1.6390  -40.0610   21.0880 C.3     1  LIG  -0.1196  -0.2000 
33    H13      0.6832  -39.9283   21.5242 H       1  LIG   0.0807   0.1000 
34    H14      1.5292  -40.4423   20.1061 H       1  LIG   0.0733   0.1000 
@<TRIPOS>BOND
1     2     1     ar
2     3     2     1
3     4     2     ar
4     5     4     1
5     6     4     ar
6     7     6     ar
7     8     7     1
8     9     8     1
9     10    8     1
10    11    10    1
11    12    11    ar
12    13    12    1
13    14    12    ar
14    15    14    1
15    16    14    ar
16    17    16    1
17    18    16    ar
18    19    11    ar
19    19    18    ar
20    20    19    1
21    21    1     ar
22    21    7     ar
23    21    20    1
24    22    6     1
25    23    22    1
26    24    22    1
27    25    22    1
28    26    10    2
29    27    20    1
30    28    27    1
31    29    27    1
32    30    29    1
33    31    29    1
34    32    27    1
35    32    29    1
36    33    32    1
37    34    32    1
@<TRIPOS>SUBSTRUCTURE
1   LIG    1    
 
########## Name        : 1VRT.lig
########## Description : AM1BCC_CHARGES =  -0.0002 ORIGINAL_CHARGES =  -0.0000

@<TRIPOS>MOLECULE
1VRT.lig
34    37    1     0     0    
SMALL
USER_CHARGES
@<TRIPOS>ATOM
1     N1       4.0540  -36.9310   22.2210 N.ar    1  LIG  -0.6650  -0.6200 
2     C1       4.9660  -36.2380   22.9390 C.ar    1  LIG   0.3947   0.1600 
3     H1       6.0082  -36.2811   22.6707 H       1  LIG   0.0281   0.1500 
4     C2       4.6240  -35.4500   24.0360 C.ar    1  LIG  -0.2334  -0.1500 
5     H2       5.3884  -34.9151   24.5740 H       1  LIG   0.1480   0.1500 
6     C3       3.3050  -35.3690   24.4150 C.ar    1  LIG  -0.0698  -0.1435 
7     C4       2.3460  -36.0770   23.6860 C.ar    1  LIG  -0.0398   0.1170 
8     N2       0.9890  -36.0280   24.1030 N.am    1  LIG  -0.4596  -0.5470 
9     H3       0.7643  -35.9928   25.0860 H       1  LIG   0.3311   0.3700 
10    C5      -0.1450  -36.0180   23.4080 C.2     1  LIG   0.7361   0.5438 
11    C6      -0.1190  -36.0770   21.8860 C.ar    1  LIG  -0.2550   0.0862 
12    C7      -1.1230  -35.3990   21.1890 C.ar    1  LIG  -0.0321  -0.1500 
13    H4      -1.7552  -34.6955   21.7041 H       1  LIG   0.1623   0.1500 
14    C8      -1.2960  -35.6300   19.8690 C.ar    1  LIG  -0.2723  -0.1500 
15    H5      -2.0662  -35.1073   19.3273 H       1  LIG   0.1522   0.1500 
16    C9      -0.4670  -36.5450   19.2400 C.ar    1  LIG   0.4373   0.1600 
17    H6      -0.5947  -36.7554   18.1915 H       1  LIG   0.0280   0.1500 
18    N3       0.5220  -37.2120   19.8740 N.ar    1  LIG  -0.6893  -0.6200 
19    C10      0.7040  -36.9790   21.1800 C.ar    1  LIG   0.6480   0.4100 
20    N4       1.7670  -37.6730   21.8260 N.pl3   1  LIG  -0.6924  -0.3690 
21    C11      2.7540  -36.8570   22.5840 C.ar    1  LIG   0.5805   0.4100 
22    C12      2.9040  -34.5090   25.6010 C.3     1  LIG  -0.0620   0.1435 
23    H7       2.2235  -33.7630   25.2820 H       1  LIG   0.0570   0.0000 
24    H8       2.4436  -35.1154   26.3371 H       1  LIG   0.0495   0.0000 
25    H9       3.7654  -34.0491   26.0108 H       1  LIG   0.0519   0.0000 
26    O1      -1.2400  -35.9060   23.9770 O.2     1  LIG  -0.6361  -0.5700 
27    C13      2.3440  -38.7570   21.0360 C.3     1  LIG   0.1354   0.0690 
28    H10      3.1238  -38.3754   20.4296 H       1  LIG   0.0981   0.1000 
29    C14      2.9380  -39.8900   21.8010 C.3     1  LIG  -0.1181  -0.2000 
30    H11      3.8890  -40.1268   21.3997 H       1  LIG   0.0732   0.1000 
31    H12      3.0430  -39.6129   22.8177 H       1  LIG   0.0789   0.1000 
32    C15      1.6390  -40.0610   21.0880 C.3     1  LIG  -0.1196  -0.2000 
33    H13      0.6832  -39.9283   21.5242 H       1  LIG   0.0807   0.1000 
34    H14      1.5292  -40.4423   20.1061 H       1  LIG   0.0733   0.1000 
@<TRIPOS>BOND
1     2     1     ar
2     3     2     1
3     4     2     ar
4     5     4     1
5     6     4     ar
6     7     6     ar
7     8     7     1
8     9     8     1
9     10    8     1
10    11    10    1
11    12    11    ar
12    13    12    1
13    14    12    ar
14    15    14    1
15    16    14    ar
16    17    16    1
17    18    16    ar
18    19    11    ar
19    19    18    ar
20    20    19    1
21    21    1     ar
22    21    7     ar
23    21    20    1
24    22    6     1
25    23    22    1
26    24    22    1
27    25    22    1
28    26    10    2
29    27    20    1
30    28    27    1
31    29    27    1
32    30    29    1
33    31    29    1
34    32    27    1
35    32    29    1
36    33    32    1
37    34    32    1
@<TRIPOS>SUBSTRUCTURE
1   LIG    1    
 
########## Name        : 1VRT.lig
########## Description : AM1BCC_CHARGES =  -0.0002 ORIGINAL_CHARGES =  -0.0000

@<TRIPOS>MOLECULE
1VRT.lig
34    37    1     0     0    
SMALL
USER_CHARGES
@<TRIPOS>ATOM
1     N1       4.0540  -36.9310   22.2210 N.ar    1  LIG  -0.6650  -0.6200 
2     C1       4.9660  -36.2380   22.9390 C.ar    1  LIG   0.3947   0.1600 
3     H1       6.0082  -36.2811   22.6707 H       1  LIG   0.0281   0.1500 
4     C2       4.6240  -35.4500   24.0360 C.ar    1  LIG  -0.2334  -0.1500 
5     H2       5.3884  -34.9151   24.5740 H       1  LIG   0.1480   0.1500 
6     C3       3.3050  -35.3690   24.4150 C.ar    1  LIG  -0.0698  -0.1435 
7     C4       2.3460  -36.0770   23.6860 C.ar    1  LIG  -0.0398   0.1170 
8     N2       0.9890  -36.0280   24.1030 N.am    1  LIG  -0.4596  -0.5470 
9     H3       0.7643  -35.9928   25.0860 H       1  LIG   0.3311   0.3700 
10    C5      -0.1450  -36.0180   23.4080 C.2     1  LIG   0.7361   0.5438 
11    C6      -0.1190  -36.0770   21.8860 C.ar    1  LIG  -0.2550   0.0862 
12    C7      -1.1230  -35.3990   21.1890 C.ar    1  LIG  -0.0321  -0.1500 
13    H4      -1.7552  -34.6955   21.7041 H       1  LIG   0.1623   0.1500 
14    C8      -1.2960  -35.6300   19.8690 C.ar    1  LIG  -0.2723  -0.1500 
15    H5      -2.0662  -35.1073   19.3273 H       1  LIG   0.1522   0.1500 
16    C9      -0.4670  -36.5450   19.2400 C.ar    1  LIG   0.4373   0.1600 
17    H6      -0.5947  -36.7554   18.1915 H       1  LIG   0.0280   0.1500 
18    N3       0.5220  -37.2120   19.8740 N.ar    1  LIG  -0.6893  -0.6200 
19    C10      0.7040  -36.9790   21.1800 C.ar    1  LIG   0.6480   0.4100 
20    N4       1.7670  -37.6730   21.8260 N.pl3   1  LIG  -0.6924  -0.3690 
21    C11      2.7540  -36.8570   22.5840 C.ar    1  LIG   0.5805   0.4100 
22    C12      2.9040  -34.5090   25.6010 C.3     1  LIG  -0.0620   0.1435 
23    H7       2.2235  -33.7630   25.2820 H       1  LIG   0.0570   0.0000 
24    H8       2.4436  -35.1154   26.3371 H       1  LIG   0.0495   0.0000 
25    H9       3.7654  -34.0491   26.0108 H       1  LIG   0.0519   0.0000 
26    O1      -1.2400  -35.9060   23.9770 O.2     1  LIG  -0.6361  -0.5700 
27    C13      2.3440  -38.7570   21.0360 C.3     1  LIG   0.1354   0.0690 
28    H10      3.1238  -38.3754   20.4296 H       1  LIG   0.0981   0.1000 
29    C14      2.9380  -39.8900   21.8010 C.3     1  LIG  -0.1181  -0.2000 
30    H11      3.8890  -40.1268   21.3997 H       1  LIG   0.0732   0.1000 
31    H12      3.0430  -39.6129   22.8177 H       1  LIG   0.0789   0.1000 
32    C15      1.6390  -40.0610   21.0880 C.3     1  LIG  -0.1196  -0.2000 
33    H13      0.6832  -39.9283   21.5242 H       1  LIG   0.0807   0.1000 
34    H14      1.5292  -40.4423   20.1061 H       1  LIG   0.0733   0.1000 
@<TRIPOS>BOND
1     2     1     ar
2     3     2     1
3     4     2     ar
4     5     4     1
5     6     4     ar
6     7     6     ar
7     8     7     1
8     9     8     1
9     10    8     1
10    11    10    1
11    12    11    ar
12    13    12    1
13    14    12    ar
14    15    14    1
15    16    14    ar
16    17    16    1
17    18    16    ar
18    19    11    ar
19    19    18    ar
20    20    19    1
21    21    1     ar
22    21    7     ar
23    21    20    1
24    22    6     1
25    23    22    1
26    24    22    1
27    25    22    1
28    26    10    2
29    27    20    1
30    28    27    1
31    29    27    1
32    30    29    1
33    31    29    1
34    32    27    1
35    32    29    1
36    33    32    1
37    34    32    1
@<TRIPOS>SUBSTRUCTURE
1   LIG    1    
 
########## Name        : 1VRT.lig
########## Description : AM1BCC_CHARGES =  -0.0002 ORIGINAL_CHARGES =  -0.0000

@<TRIPOS>MOLECULE
1VRT.lig
34    37    1     0     0    
SMALL
USER_CHARGES
@<TRIPOS>ATOM
1     N1       4.0540  -36.9310   22.2210 N.ar    1  LIG  -0.6650  -0.6200 
2     C1       4.9660  -36.2380   22.9390 C.ar    1  LIG   0.3947   0.1600 
3     H1       6.0082  -36.2811   22.6707 H       1  LIG   0.0281   0.1500 
4     C2       4.6240  -35.4500   24.0360 C.ar    1  LIG  -0.2334  -0.1500 
5     H2       5.3884  -34.9151   24.5740 H       1  LIG   0.1480   0.1500 
6     C3       3.3050  -35.3690   24.4150 C.ar    1  LIG  -0.0698  -0.1435 
7     C4       2.3460  -36.0770   23.6860 C.ar    1  LIG  -0.0398   0.1170 
8     N2       0.9890  -36.0280   24.1030 N.am    1  LIG  -0.4596  -0.5470 
9     H3       0.7643  -35.9928   25.0860 H       1  LIG   0.3311   0.3700 
10    C5      -0.1450  -36.0180   23.4080 C.2     1  LIG   0.7361   0.5438 
11    C6      -0.1190  -36.0770   21.8860 C.ar    1  LIG  -0.2550   0.0862 
12    C7      -1.1230  -35.3990   21.1890 C.ar    1  LIG  -0.0321  -0.1500 
13    H4      -1.7552  -34.6955   21.7041 H       1  LIG   0.1623   0.1500 
14    C8      -1.2960  -35.6300   19.8690 C.ar    1  LIG  -0.2723  -0.1500 
15    H5      -2.0662  -35.1073   19.3273 H       1  LIG   0.1522   0.1500 
16    C9      -0.4670  -36.5450   19.2400 C.ar    1  LIG   0.4373   0.1600 
17    H6      -0.5947  -36.7554   18.1915 H       1  LIG   0.0280   0.1500 
18    N3       0.5220  -37.2120   19.8740 N.ar    1  LIG  -0.6893  -0.6200 
19    C10      0.7040  -36.9790   21.1800 C.ar    1  LIG   0.6480   0.4100 
20    N4       1.7670  -37.6730   21.8260 N.pl3   1  LIG  -0.6924  -0.3690 
21    C11      2.7540  -36.8570   22.5840 C.ar    1  LIG   0.5805   0.4100 
22    C12      2.9040  -34.5090   25.6010 C.3     1  LIG  -0.0620   0.1435 
23    H7       2.2235  -33.7630   25.2820 H       1  LIG   0.0570   0.0000 
24    H8       2.4436  -35.1154   26.3371 H       1  LIG   0.0495   0.0000 
25    H9       3.7654  -34.0491   26.0108 H       1  LIG   0.0519   0.0000 
26    O1      -1.2400  -35.9060   23.9770 O.2     1  LIG  -0.6361  -0.5700 
27    C13      2.3440  -38.7570   21.0360 C.3     1  LIG   0.1354   0.0690 
28    H10      3.1238  -38.3754   20.4296 H       1  LIG   0.0981   0.1000 
29    C14      2.9380  -39.8900   21.8010 C.3     1  LIG  -0.1181  -0.2000 
30    H11      3.8890  -40.1268   21.3997 H       1  LIG   0.0732   0.1000 
31    H12      3.0430  -39.6129   22.8177 H       1  LIG   0.0789   0.1000 
32    C15      1.6390  -40.0610   21.0880 C.3     1  LIG  -0.1196  -0.2000 
33    H13      0.6832  -39.9283   21.5242 H       1  LIG   0.0807   0.1000 
34    H14      1.5292  -40.4423   20.1061 H       1  LIG   0.0733   0.1000 
@<TRIPOS>BOND
1     2     1     ar
2     3     2     1
3     4     2     ar
4     5     4     1
5     6     4     ar
6     7     6     ar
7     8     7     1
8     9     8     1
9     10    8     1
10    11    10    1
11    12    11    ar
12    13    12    1
13    14    12    ar
14    15    14    1
15    16    14    ar
16    17    16    1
17    18    16    ar
18    19    11    ar
19    19    18    ar
20    20    19    1
21    21    1     ar
22    21    7     ar
23    21    20    1
24    22    6     1
25    23    22    1
26    24    22    1
27    25    22    1
28    26    10    2
29    27    20    1
30    28    27    1
31    29    27    1
32    30    29    1
33    31    29    1
34    32    27    1
35    32    29    1
36    33    32    1
37    34    32    1
@<TRIPOS>SUBSTRUCTURE
1   LIG    1    
 
########## Name        : 1VRT.lig
########## Description : AM1BCC_CHARGES =  -0.0002 ORIGINAL_CHARGES =  -0.0000

@<TRIPOS>MOLECULE
1VRT.lig
34    37    1     0     0    
SMALL
USER_CHARGES
@<TRIPOS>ATOM
1     N1       4.0540  -36.9310   22.2210 N.ar    1  LIG  -0.6650  -0.6200 
2     C1       4.9660  -36.2380   22.9390 C.ar    1  LIG   0.3947   0.1600 
3     H1       6.0082  -36.2811   22.6707 H       1  LIG   0.0281   0.1500 
4     C2       4.6240  -35.4500   24.0360 C.ar    1  LIG  -0.2334  -0.1500 
5     H2       5.3884  -34.9151   24.5740 H       1  LIG   0.1480   0.1500 
6     C3       3.3050  -35.3690   24.4150 C.ar    1  LIG  -0.0698  -0.1435 
7     C4       2.3460  -36.0770   23.6860 C.ar    1  LIG  -0.0398   0.1170 
8     N2       0.9890  -36.0280   24.1030 N.am    1  LIG  -0.4596  -0.5470 
9     H3       0.7643  -35.9928   25.0860 H       1  LIG   0.3311   0.3700 
10    C5      -0.1450  -36.0180   23.4080 C.2     1  LIG   0.7361   0.5438 
11    C6      -0.1190  -36.0770   21.8860 C.ar    1  LIG  -0.2550   0.0862 
12    C7      -1.1230  -35.3990   21.1890 C.ar    1  LIG  -0.0321  -0.1500 
13    H4      -1.7552  -34.6955   21.7041 H       1  LIG   0.1623   0.1500 
14    C8      -1.2960  -35.6300   19.8690 C.ar    1  LIG  -0.2723  -0.1500 
15    H5      -2.0662  -35.1073   19.3273 H       1  LIG   0.1522   0.1500 
16    C9      -0.4670  -36.5450   19.2400 C.ar    1  LIG   0.4373   0.1600 
17    H6      -0.5947  -36.7554   18.1915 H       1  LIG   0.0280   0.1500 
18    N3       0.5220  -37.2120   19.8740 N.ar    1  LIG  -0.6893  -0.6200 
19    C10      0.7040  -36.9790   21.1800 C.ar    1  LIG   0.6480   0.4100 
20    N4       1.7670  -37.6730   21.8260 N.pl3   1  LIG  -0.6924  -0.3690 
21    C11      2.7540  -36.8570   22.5840 C.ar    1  LIG   0.5805   0.4100 
22    C12      2.9040  -34.5090   25.6010 C.3     1  LIG  -0.0620   0.1435 
23    H7       2.2235  -33.7630   25.2820 H       1  LIG   0.0570   0.0000 
24    H8       2.4436  -35.1154   26.3371 H       1  LIG   0.0495   0.0000 
25    H9       3.7654  -34.0491   26.0108 H       1  LIG   0.0519   0.0000 
26    O1      -1.2400  -35.9060   23.9770 O.2     1  LIG  -0.6361  -0.5700 
27    C13      2.3440  -38.7570   21.0360 C.3     1  LIG   0.1354   0.0690 
28    H10      3.1238  -38.3754   20.4296 H       1  LIG   0.0981   0.1000 
29    C14      2.9380  -39.8900   21.8010 C.3     1  LIG  -0.1181  -0.2000 
30    H11      3.8890  -40.1268   21.3997 H       1  LIG   0.0732   0.1000 
31    H12      3.0430  -39.6129   22.8177 H       1  LIG   0.0789   0.1000 
32    C15      1.6390  -40.0610   21.0880 C.3     1  LIG  -0.1196  -0.2000 
33    H13      0.6832  -39.9283   21.5242 H       1  LIG   0.0807   0.1000 
34    H14      1.5292  -40.4423   20.1061 H       1  LIG   0.0733   0.1000 
@<TRIPOS>BOND
1     2     1     ar
2     3     2     1
3     4     2     ar
4     5     4     1
5     6     4     ar
6     7     6     ar
7     8     7     1
8     9     8     1
9     10    8     1
10    11    10    1
11    12    11    ar
12    13    12    1
13    14    12    ar
14    15    14    1
15    16    14    ar
16    17    16    1
17    18    16    ar
18    19    11    ar
19    19    18    ar
20    20    19    1
21    21    1     ar
22    21    7     ar
23    21    20    1
24    22    6     1
25    23    22    1
26    24    22    1
27    25    22    1
28    26    10    2
29    27    20    1
30    28    27    1
31    29    27    1
32    30    29    1
33    31    29    1
34    32    27    1
35    32    29    1
36    33    32    1
37    34    32    1
@<TRIPOS>SUBSTRUCTURE
1   LIG    1    
 
########## Name        : 1VRT.lig
########## Description : AM1BCC_CHARGES =  -0.0002 ORIGINAL_CHARGES =  -0.0000

@<TRIPOS>MOLECULE
1VRT.lig
34    37    1     0     0    
SMALL
USER_CHARGES
@<TRIPOS>ATOM
1     N1       4.0540  -36.9310   22.2210 N.ar    1  LIG  -0.6650  -0.6200 
2     C1       4.9660  -36.2380   22.9390 C.ar    1  LIG   0.3947   0.1600 
3     H1       6.0082  -36.2811   22.6707 H       1  LIG   0.0281   0.1500 
4     C2       4.6240  -35.4500   24.0360 C.ar    1  LIG  -0.2334  -0.1500 
5     H2       5.3884  -34.9151   24.5740 H       1  LIG   0.1480   0.1500 
6     C3       3.3050  -35.3690   24.4150 C.ar    1  LIG  -0.0698  -0.1435 
7     C4       2.3460  -36.0770   23.6860 C.ar    1  LIG  -0.0398   0.1170 
8     N2       0.9890  -36.0280   24.1030 N.am    1  LIG  -0.4596  -0.5470 
9     H3       0.7643  -35.9928   25.0860 H       1  LIG   0.3311   0.3700 
10    C5      -0.1450  -36.0180   23.4080 C.2     1  LIG   0.7361   0.5438 
11    C6      -0.1190  -36.0770   21.8860 C.ar    1  LIG  -0.2550   0.0862 
12    C7      -1.1230  -35.3990   21.1890 C.ar    1  LIG  -0.0321  -0.1500 
13    H4      -1.7552  -34.6955   21.7041 H       1  LIG   0.1623   0.1500 
14    C8      -1.2960  -35.6300   19.8690 C.ar    1  LIG  -0.2723  -0.1500 
15    H5      -2.0662  -35.1073   19.3273 H       1  LIG   0.1522   0.1500 
16    C9      -0.4670  -36.5450   19.2400 C.ar    1  LIG   0.4373   0.1600 
17    H6      -0.5947  -36.7554   18.1915 H       1  LIG   0.0280   0.1500 
18    N3       0.5220  -37.2120   19.8740 N.ar    1  LIG  -0.6893  -0.6200 
19    C10      0.7040  -36.9790   21.1800 C.ar    1  LIG   0.6480   0.4100 
20    N4       1.7670  -37.6730   21.8260 N.pl3   1  LIG  -0.6924  -0.3690 
21    C11      2.7540  -36.8570   22.5840 C.ar    1  LIG   0.5805   0.4100 
22    C12      2.9040  -34.5090   25.6010 C.3     1  LIG  -0.0620   0.1435 
23    H7       2.2235  -33.7630   25.2820 H       1  LIG   0.0570   0.0000 
24    H8       2.4436  -35.1154   26.3371 H       1  LIG   0.0495   0.0000 
25    H9       3.7654  -34.0491   26.0108 H       1  LIG   0.0519   0.0000 
26    O1      -1.2400  -35.9060   23.9770 O.2     1  LIG  -0.6361  -0.5700 
27    C13      2.3440  -38.7570   21.0360 C.3     1  LIG   0.1354   0.0690 
28    H10      3.1238  -38.3754   20.4296 H       1  LIG   0.0981   0.1000 
29    C14      2.9380  -39.8900   21.8010 C.3     1  LIG  -0.1181  -0.2000 
30    H11      3.8890  -40.1268   21.3997 H       1  LIG   0.0732   0.1000 
31    H12      3.0430  -39.6129   22.8177 H       1  LIG   0.0789   0.1000 
32    C15      1.6390  -40.0610   21.0880 C.3     1  LIG  -0.1196  -0.2000 
33    H13      0.6832  -39.9283   21.5242 H       1  LIG   0.0807   0.1000 
34    H14      1.5292  -40.4423   20.1061 H       1  LIG   0.0733   0.1000 
@<TRIPOS>BOND
1     2     1     ar
2     3     2     1
3     4     2     ar
4     5     4     1
5     6     4     ar
6     7     6     ar
7     8     7     1
8     9     8     1
9     10    8     1
10    11    10    1
11    12    11    ar
12    13    12    1
13    14    12    ar
14    15    14    1
15    16    14    ar
16    17    16    1
17    18    16    ar
18    19    11    ar
19    19    18    ar
20    20    19    1
21    21    1     ar
22    21    7     ar
23    21    20    1
24    22    6     1
25    23    22    1
26    24    22    1
27    25    22    1
28    26    10    2
29    27    20    1
30    28    27    1
31    29    27    1
32    30    29    1
33    31    29    1
34    32    27    1
35    32    29    1
36    33    32    1
37    34    32    1
@<TRIPOS>SUBSTRUCTURE
1   LIG    1    
 
########## Name        : 1VRT.lig
########## Description : AM1BCC_CHARGES =  -0.0002 ORIGINAL_CHARGES =  -0.0000

@<TRIPOS>MOLECULE
1VRT.lig
34    37    1     0     0    
SMALL
USER_CHARGES
@<TRIPOS>ATOM
1     N1       4.0540  -36.9310   22.2210 N.ar    1  LIG  -0.6650  -0.6200 
2     C1       4.9660  -36.2380   22.9390 C.ar    1  LIG   0.3947   0.1600 
3     H1       6.0082  -36.2811   22.6707 H       1  LIG   0.0281   0.1500 
4     C2       4.6240  -35.4500   24.0360 C.ar    1  LIG  -0.2334  -0.1500 
5     H2       5.3884  -34.9151   24.5740 H       1  LIG   0.1480   0.1500 
6     C3       3.3050  -35.3690   24.4150 C.ar    1  LIG  -0.0698  -0.1435 
7     C4       2.3460  -36.0770   23.6860 C.ar    1  LIG  -0.0398   0.1170 
8     N2       0.9890  -36.0280   24.1030 N.am    1  LIG  -0.4596  -0.5470 
9     H3       0.7643  -35.9928   25.0860 H       1  LIG   0.3311   0.3700 
10    C5      -0.1450  -36.0180   23.4080 C.2     1  LIG   0.7361   0.5438 
11    C6      -0.1190  -36.0770   21.8860 C.ar    1  LIG  -0.2550   0.0862 
12    C7      -1.1230  -35.3990   21.1890 C.ar    1  LIG  -0.0321  -0.1500 
13    H4      -1.7552  -34.6955   21.7041 H       1  LIG   0.1623   0.1500 
14    C8      -1.2960  -35.6300   19.8690 C.ar    1  LIG  -0.2723  -0.1500 
15    H5      -2.0662  -35.1073   19.3273 H       1  LIG   0.1522   0.1500 
16    C9      -0.4670  -36.5450   19.2400 C.ar    1  LIG   0.4373   0.1600 
17    H6      -0.5947  -36.7554   18.1915 H       1  LIG   0.0280   0.1500 
18    N3       0.5220  -37.2120   19.8740 N.ar    1  LIG  -0.6893  -0.6200 
19    C10      0.7040  -36.9790   21.1800 C.ar    1  LIG   0.6480   0.4100 
20    N4       1.7670  -37.6730   21.8260 N.pl3   1  LIG  -0.6924  -0.3690 
21    C11      2.7540  -36.8570   22.5840 C.ar    1  LIG   0.5805   0.4100 
22    C12      2.9040  -34.5090   25.6010 C.3     1  LIG  -0.0620   0.1435 
23    H7       2.2235  -33.7630   25.2820 H       1  LIG   0.0570   0.0000 
24    H8       2.4436  -35.1154   26.3371 H       1  LIG   0.0495   0.0000 
25    H9       3.7654  -34.0491   26.0108 H       1  LIG   0.0519   0.0000 
26    O1      -1.2400  -35.9060   23.9770 O.2     1  LIG  -0.6361  -0.5700 
27    C13      2.3440  -38.7570   21.0360 C.3     1  LIG   0.1354   0.0690 
28    H10      3.1238  -38.3754   20.4296 H       1  LIG   0.0981   0.1000 
29    C14      2.9380  -39.8900   21.8010 C.3     1  LIG  -0.1181  -0.2000 
30    H11      3.8890  -40.1268   21.3997 H       1  LIG   0.0732   0.1000 
31    H12      3.0430  -39.6129   22.8177 H       1  LIG   0.0789   0.1000 
32    C15      1.6390  -40.0610   21.0880 C.3     1  LIG  -0.1196  -0.2000 
33    H13      0.6832  -39.9283   21.5242 H       1  LIG   0.0807   0.1000 
34    H14      1.5292  -40.4423   20.1061 H       1  LIG   0.0733   0.1000 
@<TRIPOS>BOND
1     2     1     ar
2     3     2     1
3     4     2     ar
4     5     4     1
5     6     4     ar
6     7     6     ar
7     8     7     1
8     9     8     1
9     10    8     1
10    11    10    1
11    12    11    ar
12    13    12    1
13    14    12    ar
14    15    14    1
15    16    14    ar
16    17    16    1
17    18    16    ar
18    19    11    ar
19    19    18    ar
20    20    19    1
21    21    1     ar
22    21    7     ar
23    21    20    1
24    22    6     1
25    23    22    1
26    24    22    1
27    25    22    1
28    26    10    2
29    27    20    1
30    28    27    1
31    29    27    1
32    30    29    1
33    31    29    1
34    32    27    1
35    32    29    1
36    33    32    1
37    34    32    1
@<TRIPOS>SUBSTRUCTURE
1   LIG    1    
 
########## Name        : 1VRT.lig
########## Description : AM1BCC_CHARGES =  -0.0002 ORIGINAL_CHARGES =  -0.0000

@<TRIPOS>MOLECULE
1VRT.lig
34    37    1     0     0    
SMALL
USER_CHARGES
@<TRIPOS>ATOM
1     N1       4.0540  -36.9310   22.2210 N.ar    1  LIG  -0.6650  -0.6200 
2     C1       4.9660  -36.2380   22.9390 C.ar    1  LIG   0.3947   0.1600 
3     H1       6.0082  -36.2811   22.6707 H       1  LIG   0.0281   0.1500 
4     C2       4.6240  -35.4500   24.0360 C.ar    1  LIG  -0.2334  -0.1500 
5     H2       5.3884  -34.9151   24.5740 H       1  LIG   0.1480   0.1500 
6     C3       3.3050  -35.3690   24.4150 C.ar    1  LIG  -0.0698  -0.1435 
7     C4       2.3460  -36.0770   23.6860 C.ar    1  LIG  -0.0398   0.1170 
8     N2       0.9890  -36.0280   24.1030 N.am    1  LIG  -0.4596  -0.5470 
9     H3       0.7643  -35.9928   25.0860 H       1  LIG   0.3311   0.3700 
10    C5      -0.1450  -36.0180   23.4080 C.2     1  LIG   0.7361   0.5438 
11    C6      -0.1190  -36.0770   21.8860 C.ar    1  LIG  -0.2550   0.0862 
12    C7      -1.1230  -35.3990   21.1890 C.ar    1  LIG  -0.0321  -0.1500 
13    H4      -1.7552  -34.6955   21.7041 H       1  LIG   0.1623   0.1500 
14    C8      -1.2960  -35.6300   19.8690 C.ar    1  LIG  -0.2723  -0.1500 
15    H5      -2.0662  -35.1073   19.3273 H       1  LIG   0.1522   0.1500 
16    C9      -0.4670  -36.5450   19.2400 C.ar    1  LIG   0.4373   0.1600 
17    H6      -0.5947  -36.7554   18.1915 H       1  LIG   0.0280   0.1500 
18    N3       0.5220  -37.2120   19.8740 N.ar    1  LIG  -0.6893  -0.6200 
19    C10      0.7040  -36.9790   21.1800 C.ar    1  LIG   0.6480   0.4100 
20    N4       1.7670  -37.6730   21.8260 N.pl3   1  LIG  -0.6924  -0.3690 
21    C11      2.7540  -36.8570   22.5840 C.ar    1  LIG   0.5805   0.4100 
22    C12      2.9040  -34.5090   25.6010 C.3     1  LIG  -0.0620   0.1435 
23    H7       2.2235  -33.7630   25.2820 H       1  LIG   0.0570   0.0000 
24    H8       2.4436  -35.1154   26.3371 H       1  LIG   0.0495   0.0000 
25    H9       3.7654  -34.0491   26.0108 H       1  LIG   0.0519   0.0000 
26    O1      -1.2400  -35.9060   23.9770 O.2     1  LIG  -0.6361  -0.5700 
27    C13      2.3440  -38.7570   21.0360 C.3     1  LIG   0.1354   0.0690 
28    H10      3.1238  -38.3754   20.4296 H       1  LIG   0.0981   0.1000 
29    C14      2.9380  -39.8900   21.8010 C.3     1  LIG  -0.1181  -0.2000 
30    H11      3.8890  -40.1268   21.3997 H       1  LIG   0.0732   0.1000 
31    H12      3.0430  -39.6129   22.8177 H       1  LIG   0.0789   0.1000 
32    C15      1.6390  -40.0610   21.0880 C.3     1  LIG  -0.1196  -0.2000 
33    H13      0.6832  -39.9283   21.5242 H       1  LIG   0.0807   0.1000 
34    H14      1.5292  -40.4423   20.1061 H       1  LIG   0.0733   0.1000 
@<TRIPOS>BOND
1     2     1     ar
2     3     2     1
3     4     2     ar
4     5     4     1
5     6     4     ar
6     7     6     ar
7     8     7     1
8     9     8     1
9     10    8     1
10    11    10    1
11    12    11    ar
12    13    12    1
13    14    12    ar
14    15    14    1
15    16    14    ar
16    17    16    1
17    18    16    ar
18    19    11    ar
19    19    18    ar
20    20    19    1
21    21    1     ar
22    21    7     ar
23    21    20    1
24    22    6     1
25    23    22    1
26    24    22    1
27    25    22    1
28    26    10    2
29    27    20    1
30    28    27    1
31    29    27    1
32    30    29    1
33    31    29    1
34    32    27    1
35    32    29    1
36    33    32    1
37    34    32    1
@<TRIPOS>SUBSTRUCTURE
1   LIG    1    
 
########## Name        : 1VRT.lig
########## Description : AM1BCC_CHARGES =  -0.0002 ORIGINAL_CHARGES =  -0.0000

@<TRIPOS>MOLECULE
1VRT.lig
34    37    1     0     0    
SMALL
USER_CHARGES
@<TRIPOS>ATOM
1     N1       4.0540  -36.9310   22.2210 N.ar    1  LIG  -0.6650  -0.6200 
2     C1       4.9660  -36.2380   22.9390 C.ar    1  LIG   0.3947   0.1600 
3     H1       6.0082  -36.2811   22.6707 H       1  LIG   0.0281   0.1500 
4     C2       4.6240  -35.4500   24.0360 C.ar    1  LIG  -0.2334  -0.1500 
5     H2       5.3884  -34.9151   24.5740 H       1  LIG   0.1480   0.1500 
6     C3       3.3050  -35.3690   24.4150 C.ar    1  LIG  -0.0698  -0.1435 
7     C4       2.3460  -36.0770   23.6860 C.ar    1  LIG  -0.0398   0.1170 
8     N2       0.9890  -36.0280   24.1030 N.am    1  LIG  -0.4596  -0.5470 
9     H3       0.7643  -35.9928   25.0860 H       1  LIG   0.3311   0.3700 
10    C5      -0.1450  -36.0180   23.4080 C.2     1  LIG   0.7361   0.5438 
11    C6      -0.1190  -36.0770   21.8860 C.ar    1  LIG  -0.2550   0.0862 
12    C7      -1.1230  -35.3990   21.1890 C.ar    1  LIG  -0.0321  -0.1500 
13    H4      -1.7552  -34.6955   21.7041 H       1  LIG   0.1623   0.1500 
14    C8      -1.2960  -35.6300   19.8690 C.ar    1  LIG  -0.2723  -0.1500 
15    H5      -2.0662  -35.1073   19.3273 H       1  LIG   0.1522   0.1500 
16    C9      -0.4670  -36.5450   19.2400 C.ar    1  LIG   0.4373   0.1600 
17    H6      -0.5947  -36.7554   18.1915 H       1  LIG   0.0280   0.1500 
18    N3       0.5220  -37.2120   19.8740 N.ar    1  LIG  -0.6893  -0.6200 
19    C10      0.7040  -36.9790   21.1800 C.ar    1  LIG   0.6480   0.4100 
20    N4       1.7670  -37.6730   21.8260 N.pl3   1  LIG  -0.6924  -0.3690 
21    C11      2.7540  -36.8570   22.5840 C.ar    1  LIG   0.5805   0.4100 
22    C12      2.9040  -34.5090   25.6010 C.3     1  LIG  -0.0620   0.1435 
23    H7       2.2235  -33.7630   25.2820 H       1  LIG   0.0570   0.0000 
24    H8       2.4436  -35.1154   26.3371 H       1  LIG   0.0495   0.0000 
25    H9       3.7654  -34.0491   26.0108 H       1  LIG   0.0519   0.0000 
26    O1      -1.2400  -35.9060   23.9770 O.2     1  LIG  -0.6361  -0.5700 
27    C13      2.3440  -38.7570   21.0360 C.3     1  LIG   0.1354   0.0690 
28    H10      3.1238  -38.3754   20.4296 H       1  LIG   0.0981   0.1000 
29    C14      2.9380  -39.8900   21.8010 C.3     1  LIG  -0.1181  -0.2000 
30    H11      3.8890  -40.1268   21.3997 H       1  LIG   0.0732   0.1000 
31    H12      3.0430  -39.6129   22.8177 H       1  LIG   0.0789   0.1000 
32    C15      1.6390  -40.0610   21.0880 C.3     1  LIG  -0.1196  -0.2000 
33    H13      0.6832  -39.9283   21.5242 H       1  LIG   0.0807   0.1000 
34    H14      1.5292  -40.4423   20.1061 H       1  LIG   0.0733   0.1000 
@<TRIPOS>BOND
1     2     1     ar
2     3     2     1
3     4     2     ar
4     5     4     1
5     6     4     ar
6     7     6     ar
7     8     7     1
8     9     8     1
9     10    8     1
10    11    10    1
11    12    11    ar
12    13    12    1
13    14    12    ar
14    15    14    1
15    16    14    ar
16    17    16    1
17    18    16    ar
18    19    11    ar
19    19    18    ar
20    20    19    1
21    21    1     ar
22    21    7     ar
23    21    20    1
24    22    6     1
25    23    22    1
26    24    22    1
27    25    22    1
28    26    10    2
29    27    20    1
30    28    27    1
31    29    27    1
32    30    29    1
33    31    29    1
34    32    27    1
35    32    29    1
36    33    32    1
37    34    32    1
@<TRIPOS>SUBSTRUCTURE
1   LIG    1    
 
########## Name        : 1VRT.lig
########## Description : AM1BCC_CHARGES =  -0.0002 ORIGINAL_CHARGES =  -0.0000

@<TRIPOS>MOLECULE
1VRT.lig
34    37    1     0     0    
SMALL
USER_CHARGES
@<TRIPOS>ATOM
1     N1       4.0540  -36.9310   22.2210 N.ar    1  LIG  -0.6650  -0.6200 
2     C1       4.9660  -36.2380   22.9390 C.ar    1  LIG   0.3947   0.1600 
3     H1       6.0082  -36.2811   22.6707 H       1  LIG   0.0281   0.1500 
4     C2       4.6240  -35.4500   24.0360 C.ar    1  LIG  -0.2334  -0.1500 
5     H2       5.3884  -34.9151   24.5740 H       1  LIG   0.1480   0.1500 
6     C3       3.3050  -35.3690   24.4150 C.ar    1  LIG  -0.0698  -0.1435 
7     C4       2.3460  -36.0770   23.6860 C.ar    1  LIG  -0.0398   0.1170 
8     N2       0.9890  -36.0280   24.1030 N.am    1  LIG  -0.4596  -0.5470 
9     H3       0.7643  -35.9928   25.0860 H       1  LIG   0.3311   0.3700 
10    C5      -0.1450  -36.0180   23.4080 C.2     1  LIG   0.7361   0.5438 
11    C6      -0.1190  -36.0770   21.8860 C.ar    1  LIG  -0.2550   0.0862 
12    C7      -1.1230  -35.3990   21.1890 C.ar    1  LIG  -0.0321  -0.1500 
13    H4      -1.7552  -34.6955   21.7041 H       1  LIG   0.1623   0.1500 
14    C8      -1.2960  -35.6300   19.8690 C.ar    1  LIG  -0.2723  -0.1500 
15    H5      -2.0662  -35.1073   19.3273 H       1  LIG   0.1522   0.1500 
16    C9      -0.4670  -36.5450   19.2400 C.ar    1  LIG   0.4373   0.1600 
17    H6      -0.5947  -36.7554   18.1915 H       1  LIG   0.0280   0.1500 
18    N3       0.5220  -37.2120   19.8740 N.ar    1  LIG  -0.6893  -0.6200 
19    C10      0.7040  -36.9790   21.1800 C.ar    1  LIG   0.6480   0.4100 
20    N4       1.7670  -37.6730   21.8260 N.pl3   1  LIG  -0.6924  -0.3690 
21    C11      2.7540  -36.8570   22.5840 C.ar    1  LIG   0.5805   0.4100 
22    C12      2.9040  -34.5090   25.6010 C.3     1  LIG  -0.0620   0.1435 
23    H7       2.2235  -33.7630   25.2820 H       1  LIG   0.0570   0.0000 
24    H8       2.4436  -35.1154   26.3371 H       1  LIG   0.0495   0.0000 
25    H9       3.7654  -34.0491   26.0108 H       1  LIG   0.0519   0.0000 
26    O1      -1.2400  -35.9060   23.9770 O.2     1  LIG  -0.6361  -0.5700 
27    C13      2.3440  -38.7570   21.0360 C.3     1  LIG   0.1354   0.0690 
28    H10      3.1238  -38.3754   20.4296 H       1  LIG   0.0981   0.1000 
29    C14      2.9380  -39.8900   21.8010 C.3     1  LIG  -0.1181  -0.2000 
30    H11      3.8890  -40.1268   21.3997 H       1  LIG   0.0732   0.1000 
31    H12      3.0430  -39.6129   22.8177 H       1  LIG   0.0789   0.1000 
32    C15      1.6390  -40.0610   21.0880 C.3     1  LIG  -0.1196  -0.2000 
33    H13      0.6832  -39.9283   21.5242 H       1  LIG   0.0807   0.1000 
34    H14      1.5292  -40.4423   20.1061 H       1  LIG   0.0733   0.1000 
@<TRIPOS>BOND
1     2     1     ar
2     3     2     1
3     4     2     ar
4     5     4     1
5     6     4     ar
6     7     6     ar
7     8     7     1
8     9     8     1
9     10    8     1
10    11    10    1
11    12    11    ar
12    13    12    1
13    14    12    ar
14    15    14    1
15    16    14    ar
16    17    16    1
17    18    16    ar
18    19    11    ar
19    19    18    ar
20    20    19    1
21    21    1     ar
22    21    7     ar
23    21    20    1
24    22    6     1
25    23    22    1
26    24    22    1
27    25    22    1
28    26    10    2
29    27    20    1
30    28    27    1
31    29    27    1
32    30    29    1
33    31    29    1
34    32    27    1
35    32    29    1
36    33    32    1
37    34    32    1
@<TRIPOS>SUBSTRUCTURE
1   LIG    1    
 
########## Name        : 1VRT.lig
########## Description : AM1BCC_CHARGES =  -0.0002 ORIGINAL_CHARGES =  -0.0000

@<TRIPOS>MOLECULE
1VRT.lig
34    37    1     0     0    
SMALL
USER_CHARGES
@<TRIPOS>ATOM
1     N1       4.0540  -36.9310   22.2210 N.ar    1  LIG  -0.6650  -0.6200 
2     C1       4.9660  -36.2380   22.9390 C.ar    1  LIG   0.3947   0.1600 
3     H1       6.0082  -36.2811   22.6707 H       1  LIG   0.0281   0.1500 
4     C2       4.6240  -35.4500   24.0360 C.ar    1  LIG  -0.2334  -0.1500 
5     H2       5.3884  -34.9151   24.5740 H       1  LIG   0.1480   0.1500 
6     C3       3.3050  -35.3690   24.4150 C.ar    1  LIG  -0.0698  -0.1435 
7     C4       2.3460  -36.0770   23.6860 C.ar    1  LIG  -0.0398   0.1170 
8     N2       0.9890  -36.0280   24.1030 N.am    1  LIG  -0.4596  -0.5470 
9     H3       0.7643  -35.9928   25.0860 H       1  LIG   0.3311   0.3700 
10    C5      -0.1450  -36.0180   23.4080 C.2     1  LIG   0.7361   0.5438 
11    C6      -0.1190  -36.0770   21.8860 C.ar    1  LIG  -0.2550   0.0862 
12    C7      -1.1230  -35.3990   21.1890 C.ar    1  LIG  -0.0321  -0.1500 
13    H4      -1.7552  -34.6955   21.7041 H       1  LIG   0.1623   0.1500 
14    C8      -1.2960  -35.6300   19.8690 C.ar    1  LIG  -0.2723  -0.1500 
15    H5      -2.0662  -35.1073   19.3273 H       1  LIG   0.1522   0.1500 
16    C9      -0.4670  -36.5450   19.2400 C.ar    1  LIG   0.4373   0.1600 
17    H6      -0.5947  -36.7554   18.1915 H       1  LIG   0.0280   0.1500 
18    N3       0.5220  -37.2120   19.8740 N.ar    1  LIG  -0.6893  -0.6200 
19    C10      0.7040  -36.9790   21.1800 C.ar    1  LIG   0.6480   0.4100 
20    N4       1.7670  -37.6730   21.8260 N.pl3   1  LIG  -0.6924  -0.3690 
21    C11      2.7540  -36.8570   22.5840 C.ar    1  LIG   0.5805   0.4100 
22    C12      2.9040  -34.5090   25.6010 C.3     1  LIG  -0.0620   0.1435 
23    H7       2.2235  -33.7630   25.2820 H       1  LIG   0.0570   0.0000 
24    H8       2.4436  -35.1154   26.3371 H       1  LIG   0.0495   0.0000 
25    H9       3.7654  -34.0491   26.0108 H       1  LIG   0.0519   0.0000 
26    O1      -1.2400  -35.9060   23.9770 O.2     1  LIG  -0.6361  -0.5700 
27    C13      2.3440  -38.7570   21.0360 C.3     1  LIG   0.1354   0.0690 
28    H10      3.1238  -38.3754   20.4296 H       1  LIG   0.0981   0.1000 
29    C14      2.9380  -39.8900   21.8010 C.3     1  LIG  -0.1181  -0.2000 
30    H11      3.8890  -40.1268   21.3997 H       1  LIG   0.0732   0.1000 
31    H12      3.0430  -39.6129   22.8177 H       1  LIG   0.0789   0.1000 
32    C15      1.6390  -40.0610   21.0880 C.3     1  LIG  -0.1196  -0.2000 
33    H13      0.6832  -39.9283   21.5242 H       1  LIG   0.0807   0.1000 
34    H14      1.5292  -40.4423   20.1061 H       1  LIG   0.0733   0.1000 
@<TRIPOS>BOND
1     2     1     ar
2     3     2     1
3     4     2     ar
4     5     4     1
5     6     4     ar
6     7     6     ar
7     8     7     1
8     9     8     1
9     10    8     1
10    11    10    1
11    12    11    ar
12    13    12    1
13    14    12    ar
14    15    14    1
15    16    14    ar
16    17    16    1
17    18    16    ar
18    19    11    ar
19    19    18    ar
20    20    19    1
21    21    1     ar
22    21    7     ar
23    21    20    1
24    22    6     1
25    23    22    1
26    24    22    1
27    25    22    1
28    26    10    2
29    27    20    1
30    28    27    1
31    29    27    1
32    30    29    1
33    31    29    1
34    32    27    1
35    32    29    1
36    33    32    1
37    34    32    1
@<TRIPOS>SUBSTRUCTURE
1   LIG    1    
 
########## Name        : 1VRT.lig
########## Description : AM1BCC_CHARGES =  -0.0002 ORIGINAL_CHARGES =  -0.0000

@<TRIPOS>MOLECULE
1VRT.lig
34    37    1     0     0    
SMALL
USER_CHARGES
@<TRIPOS>ATOM
1     N1       4.0540  -36.9310   22.2210 N.ar    1  LIG  -0.6650  -0.6200 
2     C1       4.9660  -36.2380   22.9390 C.ar    1  LIG   0.3947   0.1600 
3     H1       6.0082  -36.2811   22.6707 H       1  LIG   0.0281   0.1500 
4     C2       4.6240  -35.4500   24.0360 C.ar    1  LIG  -0.2334  -0.1500 
5     H2       5.3884  -34.9151   24.5740 H       1  LIG   0.1480   0.1500 
6     C3       3.3050  -35.3690   24.4150 C.ar    1  LIG  -0.0698  -0.1435 
7     C4       2.3460  -36.0770   23.6860 C.ar    1  LIG  -0.0398   0.1170 
8     N2       0.9890  -36.0280   24.1030 N.am    1  LIG  -0.4596  -0.5470 
9     H3       0.7643  -35.9928   25.0860 H       1  LIG   0.3311   0.3700 
10    C5      -0.1450  -36.0180   23.4080 C.2     1  LIG   0.7361   0.5438 
11    C6      -0.1190  -36.0770   21.8860 C.ar    1  LIG  -0.2550   0.0862 
12    C7      -1.1230  -35.3990   21.1890 C.ar    1  LIG  -0.0321  -0.1500 
13    H4      -1.7552  -34.6955   21.7041 H       1  LIG   0.1623   0.1500 
14    C8      -1.2960  -35.6300   19.8690 C.ar    1  LIG  -0.2723  -0.1500 
15    H5      -2.0662  -35.1073   19.3273 H       1  LIG   0.1522   0.1500 
16    C9      -0.4670  -36.5450   19.2400 C.ar    1  LIG   0.4373   0.1600 
17    H6      -0.5947  -36.7554   18.1915 H       1  LIG   0.0280   0.1500 
18    N3       0.5220  -37.2120   19.8740 N.ar    1  LIG  -0.6893  -0.6200 
19    C10      0.7040  -36.9790   21.1800 C.ar    1  LIG   0.6480   0.4100 
20    N4       1.7670  -37.6730   21.8260 N.pl3   1  LIG  -0.6924  -0.3690 
21    C11      2.7540  -36.8570   22.5840 C.ar    1  LIG   0.5805   0.4100 
22    C12      2.9040  -34.5090   25.6010 C.3     1  LIG  -0.0620   0.1435 
23    H7       2.2235  -33.7630   25.2820 H       1  LIG   0.0570   0.0000 
24    H8       2.4436  -35.1154   26.3371 H       1  LIG   0.0495   0.0000 
25    H9       3.7654  -34.0491   26.0108 H       1  LIG   0.0519   0.0000 
26    O1      -1.2400  -35.9060   23.9770 O.2     1  LIG  -0.6361  -0.5700 
27    C13      2.3440  -38.7570   21.0360 C.3     1  LIG   0.1354   0.0690 
28    H10      3.1238  -38.3754   20.4296 H       1  LIG   0.0981   0.1000 
29    C14      2.9380  -39.8900   21.8010 C.3     1  LIG  -0.1181  -0.2000 
30    H11      3.8890  -40.1268   21.3997 H       1  LIG   0.0732   0.1000 
31    H12      3.0430  -39.6129   22.8177 H       1  LIG   0.0789   0.1000 
32    C15      1.6390  -40.0610   21.0880 C.3     1  LIG  -0.1196  -0.2000 
33    H13      0.6832  -39.9283   21.5242 H       1  LIG   0.0807   0.1000 
34    H14      1.5292  -40.4423   20.1061 H       1  LIG   0.0733   0.1000 
@<TRIPOS>BOND
1     2     1     ar
2     3     2     1
3     4     2     ar
4     5     4     1
5     6     4     ar
6     7     6     ar
7     8     7     1
8     9     8     1
9     10    8     1
10    11    10    1
11    12    11    ar
12    13    12    1
13    14    12    ar
14    15    14    1
15    16    14    ar
16    17    16    1
17    18    16    ar
18    19    11    ar
19    19    18    ar
20    20    19    1
21    21    1     ar
22    21    7     ar
23    21    20    1
24    22    6     1
25    23    22    1
26    24    22    1
27    25    22    1
28    26    10    2
29    27    20    1
30    28    27    1
31    29    27    1
32    30    29    1
33    31    29    1
34    32    27    1
35    32    29    1
36    33    32    1
37    34    32    1
@<TRIPOS>SUBSTRUCTURE
1   LIG    1    
 
########## Name        : 1VRT.lig
########## Description : AM1BCC_CHARGES =  -0.0002 ORIGINAL_CHARGES =  -0.0000

@<TRIPOS>MOLECULE
1VRT.lig
34    37    1     0     0    
SMALL
USER_CHARGES
@<TRIPOS>ATOM
1     N1       4.0540  -36.9310   22.2210 N.ar    1  LIG  -0.6650  -0.6200 
2     C1       4.9660  -36.2380   22.9390 C.ar    1  LIG   0.3947   0.1600 
3     H1       6.0082  -36.2811   22.6707 H       1  LIG   0.0281   0.1500 
4     C2       4.6240  -35.4500   24.0360 C.ar    1  LIG  -0.2334  -0.1500 
5     H2       5.3884  -34.9151   24.5740 H       1  LIG   0.1480   0.1500 
6     C3       3.3050  -35.3690   24.4150 C.ar    1  LIG  -0.0698  -0.1435 
7     C4       2.3460  -36.0770   23.6860 C.ar    1  LIG  -0.0398   0.1170 
8     N2       0.9890  -36.0280   24.1030 N.am    1  LIG  -0.4596  -0.5470 
9     H3       0.7643  -35.9928   25.0860 H       1  LIG   0.3311   0.3700 
10    C5      -0.1450  -36.0180   23.4080 C.2     1  LIG   0.7361   0.5438 
11    C6      -0.1190  -36.0770   21.8860 C.ar    1  LIG  -0.2550   0.0862 
12    C7      -1.1230  -35.3990   21.1890 C.ar    1  LIG  -0.0321  -0.1500 
13    H4      -1.7552  -34.6955   21.7041 H       1  LIG   0.1623   0.1500 
14    C8      -1.2960  -35.6300   19.8690 C.ar    1  LIG  -0.2723  -0.1500 
15    H5      -2.0662  -35.1073   19.3273 H       1  LIG   0.1522   0.1500 
16    C9      -0.4670  -36.5450   19.2400 C.ar    1  LIG   0.4373   0.1600 
17    H6      -0.5947  -36.7554   18.1915 H       1  LIG   0.0280   0.1500 
18    N3       0.5220  -37.2120   19.8740 N.ar    1  LIG  -0.6893  -0.6200 
19    C10      0.7040  -36.9790   21.1800 C.ar    1  LIG   0.6480   0.4100 
20    N4       1.7670  -37.6730   21.8260 N.pl3   1  LIG  -0.6924  -0.3690 
21    C11      2.7540  -36.8570   22.5840 C.ar    1  LIG   0.5805   0.4100 
22    C12      2.9040  -34.5090   25.6010 C.3     1  LIG  -0.0620   0.1435 
23    H7       2.2235  -33.7630   25.2820 H       1  LIG   0.0570   0.0000 
24    H8       2.4436  -35.1154   26.3371 H       1  LIG   0.0495   0.0000 
25    H9       3.7654  -34.0491   26.0108 H       1  LIG   0.0519   0.0000 
26    O1      -1.2400  -35.9060   23.9770 O.2     1  LIG  -0.6361  -0.5700 
27    C13      2.3440  -38.7570   21.0360 C.3     1  LIG   0.1354   0.0690 
28    H10      3.1238  -38.3754   20.4296 H       1  LIG   0.0981   0.1000 
29    C14      2.9380  -39.8900   21.8010 C.3     1  LIG  -0.1181  -0.2000 
30    H11      3.8890  -40.1268   21.3997 H       1  LIG   0.0732   0.1000 
31    H12      3.0430  -39.6129   22.8177 H       1  LIG   0.0789   0.1000 
32    C15      1.6390  -40.0610   21.0880 C.3     1  LIG  -0.1196  -0.2000 
33    H13      0.6832  -39.9283   21.5242 H       1  LIG   0.0807   0.1000 
34    H14      1.5292  -40.4423   20.1061 H       1  LIG   0.0733   0.1000 
@<TRIPOS>BOND
1     2     1     ar
2     3     2     1
3     4     2     ar
4     5     4     1
5     6     4     ar
6     7     6     ar
7     8     7     1
8     9     8     1
9     10    8     1
10    11    10    1
11    12    11    ar
12    13    12    1
13    14    12    ar
14    15    14    1
15    16    14    ar
16    17    16    1
17    18    16    ar
18    19    11    ar
19    19    18    ar
20    20    19    1
21    21    1     ar
22    21    7     ar
23    21    20    1
24    22    6     1
25    23    22    1
26    24    22    1
27    25    22    1
28    26    10    2
29    27    20    1
30    28    27    1
31    29    27    1
32    30    29    1
33    31    29    1
34    32    27    1
35    32    29    1
36    33    32    1
37    34    32    1
@<TRIPOS>SUBSTRUCTURE
1   LIG    1    
 
########## Name        : 1VRT.lig
########## Description : AM1BCC_CHARGES =  -0.0002 ORIGINAL_CHARGES =  -0.0000

@<TRIPOS>MOLECULE
1VRT.lig
34    37    1     0     0    
SMALL
USER_CHARGES
@<TRIPOS>ATOM
1     N1       4.0540  -36.9310   22.2210 N.ar    1  LIG  -0.6650  -0.6200 
2     C1       4.9660  -36.2380   22.9390 C.ar    1  LIG   0.3947   0.1600 
3     H1       6.0082  -36.2811   22.6707 H       1  LIG   0.0281   0.1500 
4     C2       4.6240  -35.4500   24.0360 C.ar    1  LIG  -0.2334  -0.1500 
5     H2       5.3884  -34.9151   24.5740 H       1  LIG   0.1480   0.1500 
6     C3       3.3050  -35.3690   24.4150 C.ar    1  LIG  -0.0698  -0.1435 
7     C4       2.3460  -36.0770   23.6860 C.ar    1  LIG  -0.0398   0.1170 
8     N2       0.9890  -36.0280   24.1030 N.am    1  LIG  -0.4596  -0.5470 
9     H3       0.7643  -35.9928   25.0860 H       1  LIG   0.3311   0.3700 
10    C5      -0.1450  -36.0180   23.4080 C.2     1  LIG   0.7361   0.5438 
11    C6      -0.1190  -36.0770   21.8860 C.ar    1  LIG  -0.2550   0.0862 
12    C7      -1.1230  -35.3990   21.1890 C.ar    1  LIG  -0.0321  -0.1500 
13    H4      -1.7552  -34.6955   21.7041 H       1  LIG   0.1623   0.1500 
14    C8      -1.2960  -35.6300   19.8690 C.ar    1  LIG  -0.2723  -0.1500 
15    H5      -2.0662  -35.1073   19.3273 H       1  LIG   0.1522   0.1500 
16    C9      -0.4670  -36.5450   19.2400 C.ar    1  LIG   0.4373   0.1600 
17    H6      -0.5947  -36.7554   18.1915 H       1  LIG   0.0280   0.1500 
18    N3       0.5220  -37.2120   19.8740 N.ar    1  LIG  -0.6893  -0.6200 
19    C10      0.7040  -36.9790   21.1800 C.ar    1  LIG   0.6480   0.4100 
20    N4       1.7670  -37.6730   21.8260 N.pl3   1  LIG  -0.6924  -0.3690 
21    C11      2.7540  -36.8570   22.5840 C.ar    1  LIG   0.5805   0.4100 
22    C12      2.9040  -34.5090   25.6010 C.3     1  LIG  -0.0620   0.1435 
23    H7       2.2235  -33.7630   25.2820 H       1  LIG   0.0570   0.0000 
24    H8       2.4436  -35.1154   26.3371 H       1  LIG   0.0495   0.0000 
25    H9       3.7654  -34.0491   26.0108 H       1  LIG   0.0519   0.0000 
26    O1      -1.2400  -35.9060   23.9770 O.2     1  LIG  -0.6361  -0.5700 
27    C13      2.3440  -38.7570   21.0360 C.3     1  LIG   0.1354   0.0690 
28    H10      3.1238  -38.3754   20.4296 H       1  LIG   0.0981   0.1000 
29    C14      2.9380  -39.8900   21.8010 C.3     1  LIG  -0.1181  -0.2000 
30    H11      3.8890  -40.1268   21.3997 H       1  LIG   0.0732   0.1000 
31    H12      3.0430  -39.6129   22.8177 H       1  LIG   0.0789   0.1000 
32    C15      1.6390  -40.0610   21.0880 C.3     1  LIG  -0.1196  -0.2000 
33    H13      0.6832  -39.9283   21.5242 H       1  LIG   0.0807   0.1000 
34    H14      1.5292  -40.4423   20.1061 H       1  LIG   0.0733   0.1000 
@<TRIPOS>BOND
1     2     1     ar
2     3     2     1
3     4     2     ar
4     5     4     1
5     6     4     ar
6     7     6     ar
7     8     7     1
8     9     8     1
9     10    8     1
10    11    10    1
11    12    11    ar
12    13    12    1
13    14    12    ar
14    15    14    1
15    16    14    ar
16    17    16    1
17    18    16    ar
18    19    11    ar
19    19    18    ar
20    20    19    1
21    21    1     ar
22    21    7     ar
23    21    20    1
24    22    6     1
25    23    22    1
26    24    22    1
27    25    22    1
28    26    10    2
29    27    20    1
30    28    27    1
31    29    27    1
32    30    29    1
33    31    29    1
34    32    27    1
35    32    29    1
36    33    32    1
37    34    32    1
@<TRIPOS>SUBSTRUCTURE
1   LIG    1    
 
########## Name        : 1VRT.lig
########## Description : AM1BCC_CHARGES =  -0.0002 ORIGINAL_CHARGES =  -0.0000

@<TRIPOS>MOLECULE
1VRT.lig
34    37    1     0     0    
SMALL
USER_CHARGES
@<TRIPOS>ATOM
1     N1       4.0540  -36.9310   22.2210 N.ar    1  LIG  -0.6650  -0.6200 
2     C1       4.9660  -36.2380   22.9390 C.ar    1  LIG   0.3947   0.1600 
3     H1       6.0082  -36.2811   22.6707 H       1  LIG   0.0281   0.1500 
4     C2       4.6240  -35.4500   24.0360 C.ar    1  LIG  -0.2334  -0.1500 
5     H2       5.3884  -34.9151   24.5740 H       1  LIG   0.1480   0.1500 
6     C3       3.3050  -35.3690   24.4150 C.ar    1  LIG  -0.0698  -0.1435 
7     C4       2.3460  -36.0770   23.6860 C.ar    1  LIG  -0.0398   0.1170 
8     N2       0.9890  -36.0280   24.1030 N.am    1  LIG  -0.4596  -0.5470 
9     H3       0.7643  -35.9928   25.0860 H       1  LIG   0.3311   0.3700 
10    C5      -0.1450  -36.0180   23.4080 C.2     1  LIG   0.7361   0.5438 
11    C6      -0.1190  -36.0770   21.8860 C.ar    1  LIG  -0.2550   0.0862 
12    C7      -1.1230  -35.3990   21.1890 C.ar    1  LIG  -0.0321  -0.1500 
13    H4      -1.7552  -34.6955   21.7041 H       1  LIG   0.1623   0.1500 
14    C8      -1.2960  -35.6300   19.8690 C.ar    1  LIG  -0.2723  -0.1500 
15    H5      -2.0662  -35.1073   19.3273 H       1  LIG   0.1522   0.1500 
16    C9      -0.4670  -36.5450   19.2400 C.ar    1  LIG   0.4373   0.1600 
17    H6      -0.5947  -36.7554   18.1915 H       1  LIG   0.0280   0.1500 
18    N3       0.5220  -37.2120   19.8740 N.ar    1  LIG  -0.6893  -0.6200 
19    C10      0.7040  -36.9790   21.1800 C.ar    1  LIG   0.6480   0.4100 
20    N4       1.7670  -37.6730   21.8260 N.pl3   1  LIG  -0.6924  -0.3690 
21    C11      2.7540  -36.8570   22.5840 C.ar    1  LIG   0.5805   0.4100 
22    C12      2.9040  -34.5090   25.6010 C.3     1  LIG  -0.0620   0.1435 
23    H7       2.2235  -33.7630   25.2820 H       1  LIG   0.0570   0.0000 
24    H8       2.4436  -35.1154   26.3371 H       1  LIG   0.0495   0.0000 
25    H9       3.7654  -34.0491   26.0108 H       1  LIG   0.0519   0.0000 
26    O1      -1.2400  -35.9060   23.9770 O.2     1  LIG  -0.6361  -0.5700 
27    C13      2.3440  -38.7570   21.0360 C.3     1  LIG   0.1354   0.0690 
28    H10      3.1238  -38.3754   20.4296 H       1  LIG   0.0981   0.1000 
29    C14      2.9380  -39.8900   21.8010 C.3     1  LIG  -0.1181  -0.2000 
30    H11      3.8890  -40.1268   21.3997 H       1  LIG   0.0732   0.1000 
31    H12      3.0430  -39.6129   22.8177 H       1  LIG   0.0789   0.1000 
32    C15      1.6390  -40.0610   21.0880 C.3     1  LIG  -0.1196  -0.2000 
33    H13      0.6832  -39.9283   21.5242 H       1  LIG   0.0807   0.1000 
34    H14      1.5292  -40.4423   20.1061 H       1  LIG   0.0733   0.1000 
@<TRIPOS>BOND
1     2     1     ar
2     3     2     1
3     4     2     ar
4     5     4     1
5     6     4     ar
6     7     6     ar
7     8     7     1
8     9     8     1
9     10    8     1
10    11    10    1
11    12    11    ar
12    13    12    1
13    14    12    ar
14    15    14    1
15    16    14    ar
16    17    16    1
17    18    16    ar
18    19    11    ar
19    19    18    ar
20    20    19    1
21    21    1     ar
22    21    7     ar
23    21    20    1
24    22    6     1
25    23    22    1
26    24    22    1
27    25    22    1
28    26    10    2
29    27    20    1
30    28    27    1
31    29    27    1
32    30    29    1
33    31    29    1
34    32    27    1
35    32    29    1
36    33    32    1
37    34    32    1
@<TRIPOS>SUBSTRUCTURE
1   LIG    1    
 
########## Name        : 1VRT.lig
########## Description : AM1BCC_CHARGES =  -0.0002 ORIGINAL_CHARGES =  -0.0000

@<TRIPOS>MOLECULE
1VRT.lig
34    37    1     0     0    
SMALL
USER_CHARGES
@<TRIPOS>ATOM
1     N1       4.0540  -36.9310   22.2210 N.ar    1  LIG  -0.6650  -0.6200 
2     C1       4.9660  -36.2380   22.9390 C.ar    1  LIG   0.3947   0.1600 
3     H1       6.0082  -36.2811   22.6707 H       1  LIG   0.0281   0.1500 
4     C2       4.6240  -35.4500   24.0360 C.ar    1  LIG  -0.2334  -0.1500 
5     H2       5.3884  -34.9151   24.5740 H       1  LIG   0.1480   0.1500 
6     C3       3.3050  -35.3690   24.4150 C.ar    1  LIG  -0.0698  -0.1435 
7     C4       2.3460  -36.0770   23.6860 C.ar    1  LIG  -0.0398   0.1170 
8     N2       0.9890  -36.0280   24.1030 N.am    1  LIG  -0.4596  -0.5470 
9     H3       0.7643  -35.9928   25.0860 H       1  LIG   0.3311   0.3700 
10    C5      -0.1450  -36.0180   23.4080 C.2     1  LIG   0.7361   0.5438 
11    C6      -0.1190  -36.0770   21.8860 C.ar    1  LIG  -0.2550   0.0862 
12    C7      -1.1230  -35.3990   21.1890 C.ar    1  LIG  -0.0321  -0.1500 
13    H4      -1.7552  -34.6955   21.7041 H       1  LIG   0.1623   0.1500 
14    C8      -1.2960  -35.6300   19.8690 C.ar    1  LIG  -0.2723  -0.1500 
15    H5      -2.0662  -35.1073   19.3273 H       1  LIG   0.1522   0.1500 
16    C9      -0.4670  -36.5450   19.2400 C.ar    1  LIG   0.4373   0.1600 
17    H6      -0.5947  -36.7554   18.1915 H       1  LIG   0.0280   0.1500 
18    N3       0.5220  -37.2120   19.8740 N.ar    1  LIG  -0.6893  -0.6200 
19    C10      0.7040  -36.9790   21.1800 C.ar    1  LIG   0.6480   0.4100 
20    N4       1.7670  -37.6730   21.8260 N.pl3   1  LIG  -0.6924  -0.3690 
21    C11      2.7540  -36.8570   22.5840 C.ar    1  LIG   0.5805   0.4100 
22    C12      2.9040  -34.5090   25.6010 C.3     1  LIG  -0.0620   0.1435 
23    H7       2.2235  -33.7630   25.2820 H       1  LIG   0.0570   0.0000 
24    H8       2.4436  -35.1154   26.3371 H       1  LIG   0.0495   0.0000 
25    H9       3.7654  -34.0491   26.0108 H       1  LIG   0.0519   0.0000 
26    O1      -1.2400  -35.9060   23.9770 O.2     1  LIG  -0.6361  -0.5700 
27    C13      2.3440  -38.7570   21.0360 C.3     1  LIG   0.1354   0.0690 
28    H10      3.1238  -38.3754   20.4296 H       1  LIG   0.0981   0.1000 
29    C14      2.9380  -39.8900   21.8010 C.3     1  LIG  -0.1181  -0.2000 
30    H11      3.8890  -40.1268   21.3997 H       1  LIG   0.0732   0.1000 
31    H12      3.0430  -39.6129   22.8177 H       1  LIG   0.0789   0.1000 
32    C15      1.6390  -40.0610   21.0880 C.3     1  LIG  -0.1196  -0.2000 
33    H13      0.6832  -39.9283   21.5242 H       1  LIG   0.0807   0.1000 
34    H14      1.5292  -40.4423   20.1061 H       1  LIG   0.0733   0.1000 
@<TRIPOS>BOND
1     2     1     ar
2     3     2     1
3     4     2     ar
4     5     4     1
5     6     4     ar
6     7     6     ar
7     8     7     1
8     9     8     1
9     10    8     1
10    11    10    1
11    12    11    ar
12    13    12    1
13    14    12    ar
14    15    14    1
15    16    14    ar
16    17    16    1
17    18    16    ar
18    19    11    ar
19    19    18    ar
20    20    19    1
21    21    1     ar
22    21    7     ar
23    21    20    1
24    22    6     1
25    23    22    1
26    24    22    1
27    25    22    1
28    26    10    2
29    27    20    1
30    28    27    1
31    29    27    1
32    30    29    1
33    31    29    1
34    32    27    1
35    32    29    1
36    33    32    1
37    34    32    1
@<TRIPOS>SUBSTRUCTURE
1   LIG    1    
 
########## Name        : 1VRT.lig
########## Description : AM1BCC_CHARGES =  -0.0002 ORIGINAL_CHARGES =  -0.0000

@<TRIPOS>MOLECULE
1VRT.lig
34    37    1     0     0    
SMALL
USER_CHARGES
@<TRIPOS>ATOM
1     N1       4.0540  -36.9310   22.2210 N.ar    1  LIG  -0.6650  -0.6200 
2     C1       4.9660  -36.2380   22.9390 C.ar    1  LIG   0.3947   0.1600 
3     H1       6.0082  -36.2811   22.6707 H       1  LIG   0.0281   0.1500 
4     C2       4.6240  -35.4500   24.0360 C.ar    1  LIG  -0.2334  -0.1500 
5     H2       5.3884  -34.9151   24.5740 H       1  LIG   0.1480   0.1500 
6     C3       3.3050  -35.3690   24.4150 C.ar    1  LIG  -0.0698  -0.1435 
7     C4       2.3460  -36.0770   23.6860 C.ar    1  LIG  -0.0398   0.1170 
8     N2       0.9890  -36.0280   24.1030 N.am    1  LIG  -0.4596  -0.5470 
9     H3       0.7643  -35.9928   25.0860 H       1  LIG   0.3311   0.3700 
10    C5      -0.1450  -36.0180   23.4080 C.2     1  LIG   0.7361   0.5438 
11    C6      -0.1190  -36.0770   21.8860 C.ar    1  LIG  -0.2550   0.0862 
12    C7      -1.1230  -35.3990   21.1890 C.ar    1  LIG  -0.0321  -0.1500 
13    H4      -1.7552  -34.6955   21.7041 H       1  LIG   0.1623   0.1500 
14    C8      -1.2960  -35.6300   19.8690 C.ar    1  LIG  -0.2723  -0.1500 
15    H5      -2.0662  -35.1073   19.3273 H       1  LIG   0.1522   0.1500 
16    C9      -0.4670  -36.5450   19.2400 C.ar    1  LIG   0.4373   0.1600 
17    H6      -0.5947  -36.7554   18.1915 H       1  LIG   0.0280   0.1500 
18    N3       0.5220  -37.2120   19.8740 N.ar    1  LIG  -0.6893  -0.6200 
19    C10      0.7040  -36.9790   21.1800 C.ar    1  LIG   0.6480   0.4100 
20    N4       1.7670  -37.6730   21.8260 N.pl3   1  LIG  -0.6924  -0.3690 
21    C11      2.7540  -36.8570   22.5840 C.ar    1  LIG   0.5805   0.4100 
22    C12      2.9040  -34.5090   25.6010 C.3     1  LIG  -0.0620   0.1435 
23    H7       2.2235  -33.7630   25.2820 H       1  LIG   0.0570   0.0000 
24    H8       2.4436  -35.1154   26.3371 H       1  LIG   0.0495   0.0000 
25    H9       3.7654  -34.0491   26.0108 H       1  LIG   0.0519   0.0000 
26    O1      -1.2400  -35.9060   23.9770 O.2     1  LIG  -0.6361  -0.5700 
27    C13      2.3440  -38.7570   21.0360 C.3     1  LIG   0.1354   0.0690 
28    H10      3.1238  -38.3754   20.4296 H       1  LIG   0.0981   0.1000 
29    C14      2.9380  -39.8900   21.8010 C.3     1  LIG  -0.1181  -0.2000 
30    H11      3.8890  -40.1268   21.3997 H       1  LIG   0.0732   0.1000 
31    H12      3.0430  -39.6129   22.8177 H       1  LIG   0.0789   0.1000 
32    C15      1.6390  -40.0610   21.0880 C.3     1  LIG  -0.1196  -0.2000 
33    H13      0.6832  -39.9283   21.5242 H       1  LIG   0.0807   0.1000 
34    H14      1.5292  -40.4423   20.1061 H       1  LIG   0.0733   0.1000 
@<TRIPOS>BOND
1     2     1     ar
2     3     2     1
3     4     2     ar
4     5     4     1
5     6     4     ar
6     7     6     ar
7     8     7     1
8     9     8     1
9     10    8     1
10    11    10    1
11    12    11    ar
12    13    12    1
13    14    12    ar
14    15    14    1
15    16    14    ar
16    17    16    1
17    18    16    ar
18    19    11    ar
19    19    18    ar
20    20    19    1
21    21    1     ar
22    21    7     ar
23    21    20    1
24    22    6     1
25    23    22    1
26    24    22    1
27    25    22    1
28    26    10    2
29    27    20    1
30    28    27    1
31    29    27    1
32    30    29    1
33    31    29    1
34    32    27    1
35    32    29    1
36    33    32    1
37    34    32    1
@<TRIPOS>SUBSTRUCTURE
1   LIG    1    
 
########## Name        : 1VRT.lig
########## Description : AM1BCC_CHARGES =  -0.0002 ORIGINAL_CHARGES =  -0.0000

@<TRIPOS>MOLECULE
1VRT.lig
34    37    1     0     0    
SMALL
USER_CHARGES
@<TRIPOS>ATOM
1     N1       4.0540  -36.9310   22.2210 N.ar    1  LIG  -0.6650  -0.6200 
2     C1       4.9660  -36.2380   22.9390 C.ar    1  LIG   0.3947   0.1600 
3     H1       6.0082  -36.2811   22.6707 H       1  LIG   0.0281   0.1500 
4     C2       4.6240  -35.4500   24.0360 C.ar    1  LIG  -0.2334  -0.1500 
5     H2       5.3884  -34.9151   24.5740 H       1  LIG   0.1480   0.1500 
6     C3       3.3050  -35.3690   24.4150 C.ar    1  LIG  -0.0698  -0.1435 
7     C4       2.3460  -36.0770   23.6860 C.ar    1  LIG  -0.0398   0.1170 
8     N2       0.9890  -36.0280   24.1030 N.am    1  LIG  -0.4596  -0.5470 
9     H3       0.7643  -35.9928   25.0860 H       1  LIG   0.3311   0.3700 
10    C5      -0.1450  -36.0180   23.4080 C.2     1  LIG   0.7361   0.5438 
11    C6      -0.1190  -36.0770   21.8860 C.ar    1  LIG  -0.2550   0.0862 
12    C7      -1.1230  -35.3990   21.1890 C.ar    1  LIG  -0.0321  -0.1500 
13    H4      -1.7552  -34.6955   21.7041 H       1  LIG   0.1623   0.1500 
14    C8      -1.2960  -35.6300   19.8690 C.ar    1  LIG  -0.2723  -0.1500 
15    H5      -2.0662  -35.1073   19.3273 H       1  LIG   0.1522   0.1500 
16    C9      -0.4670  -36.5450   19.2400 C.ar    1  LIG   0.4373   0.1600 
17    H6      -0.5947  -36.7554   18.1915 H       1  LIG   0.0280   0.1500 
18    N3       0.5220  -37.2120   19.8740 N.ar    1  LIG  -0.6893  -0.6200 
19    C10      0.7040  -36.9790   21.1800 C.ar    1  LIG   0.6480   0.4100 
20    N4       1.7670  -37.6730   21.8260 N.pl3   1  LIG  -0.6924  -0.3690 
21    C11      2.7540  -36.8570   22.5840 C.ar    1  LIG   0.5805   0.4100 
22    C12      2.9040  -34.5090   25.6010 C.3     1  LIG  -0.0620   0.1435 
23    H7       2.2235  -33.7630   25.2820 H       1  LIG   0.0570   0.0000 
24    H8       2.4436  -35.1154   26.3371 H       1  LIG   0.0495   0.0000 
25    H9       3.7654  -34.0491   26.0108 H       1  LIG   0.0519   0.0000 
26    O1      -1.2400  -35.9060   23.9770 O.2     1  LIG  -0.6361  -0.5700 
27    C13      2.3440  -38.7570   21.0360 C.3     1  LIG   0.1354   0.0690 
28    H10      3.1238  -38.3754   20.4296 H       1  LIG   0.0981   0.1000 
29    C14      2.9380  -39.8900   21.8010 C.3     1  LIG  -0.1181  -0.2000 
30    H11      3.8890  -40.1268   21.3997 H       1  LIG   0.0732   0.1000 
31    H12      3.0430  -39.6129   22.8177 H       1  LIG   0.0789   0.1000 
32    C15      1.6390  -40.0610   21.0880 C.3     1  LIG  -0.1196  -0.2000 
33    H13      0.6832  -39.9283   21.5242 H       1  LIG   0.0807   0.1000 
34    H14      1.5292  -40.4423   20.1061 H       1  LIG   0.0733   0.1000 
@<TRIPOS>BOND
1     2     1     ar
2     3     2     1
3     4     2     ar
4     5     4     1
5     6     4     ar
6     7     6     ar
7     8     7     1
8     9     8     1
9     10    8     1
10    11    10    1
11    12    11    ar
12    13    12    1
13    14    12    ar
14    15    14    1
15    16    14    ar
16    17    16    1
17    18    16    ar
18    19    11    ar
19    19    18    ar
20    20    19    1
21    21    1     ar
22    21    7     ar
23    21    20    1
24    22    6     1
25    23    22    1
26    24    22    1
27    25    22    1
28    26    10    2
29    27    20    1
30    28    27    1
31    29    27    1
32    30    29    1
33    31    29    1
34    32    27    1
35    32    29    1
36    33    32    1
37    34    32    1
@<TRIPOS>SUBSTRUCTURE
1   LIG    1    
 
########## Name        : 1VRT.lig
########## Description : AM1BCC_CHARGES =  -0.0002 ORIGINAL_CHARGES =  -0.0000

@<TRIPOS>MOLECULE
1VRT.lig
34    37    1     0     0    
SMALL
USER_CHARGES
@<TRIPOS>ATOM
1     N1       4.0540  -36.9310   22.2210 N.ar    1  LIG  -0.6650  -0.6200 
2     C1       4.9660  -36.2380   22.9390 C.ar    1  LIG   0.3947   0.1600 
3     H1       6.0082  -36.2811   22.6707 H       1  LIG   0.0281   0.1500 
4     C2       4.6240  -35.4500   24.0360 C.ar    1  LIG  -0.2334  -0.1500 
5     H2       5.3884  -34.9151   24.5740 H       1  LIG   0.1480   0.1500 
6     C3       3.3050  -35.3690   24.4150 C.ar    1  LIG  -0.0698  -0.1435 
7     C4       2.3460  -36.0770   23.6860 C.ar    1  LIG  -0.0398   0.1170 
8     N2       0.9890  -36.0280   24.1030 N.am    1  LIG  -0.4596  -0.5470 
9     H3       0.7643  -35.9928   25.0860 H       1  LIG   0.3311   0.3700 
10    C5      -0.1450  -36.0180   23.4080 C.2     1  LIG   0.7361   0.5438 
11    C6      -0.1190  -36.0770   21.8860 C.ar    1  LIG  -0.2550   0.0862 
12    C7      -1.1230  -35.3990   21.1890 C.ar    1  LIG  -0.0321  -0.1500 
13    H4      -1.7552  -34.6955   21.7041 H       1  LIG   0.1623   0.1500 
14    C8      -1.2960  -35.6300   19.8690 C.ar    1  LIG  -0.2723  -0.1500 
15    H5      -2.0662  -35.1073   19.3273 H       1  LIG   0.1522   0.1500 
16    C9      -0.4670  -36.5450   19.2400 C.ar    1  LIG   0.4373   0.1600 
17    H6      -0.5947  -36.7554   18.1915 H       1  LIG   0.0280   0.1500 
18    N3       0.5220  -37.2120   19.8740 N.ar    1  LIG  -0.6893  -0.6200 
19    C10      0.7040  -36.9790   21.1800 C.ar    1  LIG   0.6480   0.4100 
20    N4       1.7670  -37.6730   21.8260 N.pl3   1  LIG  -0.6924  -0.3690 
21    C11      2.7540  -36.8570   22.5840 C.ar    1  LIG   0.5805   0.4100 
22    C12      2.9040  -34.5090   25.6010 C.3     1  LIG  -0.0620   0.1435 
23    H7       2.2235  -33.7630   25.2820 H       1  LIG   0.0570   0.0000 
24    H8       2.4436  -35.1154   26.3371 H       1  LIG   0.0495   0.0000 
25    H9       3.7654  -34.0491   26.0108 H       1  LIG   0.0519   0.0000 
26    O1      -1.2400  -35.9060   23.9770 O.2     1  LIG  -0.6361  -0.5700 
27    C13      2.3440  -38.7570   21.0360 C.3     1  LIG   0.1354   0.0690 
28    H10      3.1238  -38.3754   20.4296 H       1  LIG   0.0981   0.1000 
29    C14      2.9380  -39.8900   21.8010 C.3     1  LIG  -0.1181  -0.2000 
30    H11      3.8890  -40.1268   21.3997 H       1  LIG   0.0732   0.1000 
31    H12      3.0430  -39.6129   22.8177 H       1  LIG   0.0789   0.1000 
32    C15      1.6390  -40.0610   21.0880 C.3     1  LIG  -0.1196  -0.2000 
33    H13      0.6832  -39.9283   21.5242 H       1  LIG   0.0807   0.1000 
34    H14      1.5292  -40.4423   20.1061 H       1  LIG   0.0733   0.1000 
@<TRIPOS>BOND
1     2     1     ar
2     3     2     1
3     4     2     ar
4     5     4     1
5     6     4     ar
6     7     6     ar
7     8     7     1
8     9     8     1
9     10    8     1
10    11    10    1
11    12    11    ar
12    13    12    1
13    14    12    ar
14    15    14    1
15    16    14    ar
16    17    16    1
17    18    16    ar
18    19    11    ar
19    19    18    ar
20    20    19    1
21    21    1     ar
22    21    7     ar
23    21    20    1
24    22    6     1
25    23    22    1
26    24    22    1
27    25    22    1
28    26    10    2
29    27    20    1
30    28    27    1
31    29    27    1
32    30    29    1
33    31    29    1
34    32    27    1
35    32    29    1
36    33    32    1
37    34    32    1
@<TRIPOS>SUBSTRUCTURE
1   LIG    1    
 
########## Name        : 1VRT.lig
########## Description : AM1BCC_CHARGES =  -0.0002 ORIGINAL_CHARGES =  -0.0000

@<TRIPOS>MOLECULE
1VRT.lig
34    37    1     0     0    
SMALL
USER_CHARGES
@<TRIPOS>ATOM
1     N1       4.0540  -36.9310   22.2210 N.ar    1  LIG  -0.6650  -0.6200 
2     C1       4.9660  -36.2380   22.9390 C.ar    1  LIG   0.3947   0.1600 
3     H1       6.0082  -36.2811   22.6707 H       1  LIG   0.0281   0.1500 
4     C2       4.6240  -35.4500   24.0360 C.ar    1  LIG  -0.2334  -0.1500 
5     H2       5.3884  -34.9151   24.5740 H       1  LIG   0.1480   0.1500 
6     C3       3.3050  -35.3690   24.4150 C.ar    1  LIG  -0.0698  -0.1435 
7     C4       2.3460  -36.0770   23.6860 C.ar    1  LIG  -0.0398   0.1170 
8     N2       0.9890  -36.0280   24.1030 N.am    1  LIG  -0.4596  -0.5470 
9     H3       0.7643  -35.9928   25.0860 H       1  LIG   0.3311   0.3700 
10    C5      -0.1450  -36.0180   23.4080 C.2     1  LIG   0.7361   0.5438 
11    C6      -0.1190  -36.0770   21.8860 C.ar    1  LIG  -0.2550   0.0862 
12    C7      -1.1230  -35.3990   21.1890 C.ar    1  LIG  -0.0321  -0.1500 
13    H4      -1.7552  -34.6955   21.7041 H       1  LIG   0.1623   0.1500 
14    C8      -1.2960  -35.6300   19.8690 C.ar    1  LIG  -0.2723  -0.1500 
15    H5      -2.0662  -35.1073   19.3273 H       1  LIG   0.1522   0.1500 
16    C9      -0.4670  -36.5450   19.2400 C.ar    1  LIG   0.4373   0.1600 
17    H6      -0.5947  -36.7554   18.1915 H       1  LIG   0.0280   0.1500 
18    N3       0.5220  -37.2120   19.8740 N.ar    1  LIG  -0.6893  -0.6200 
19    C10      0.7040  -36.9790   21.1800 C.ar    1  LIG   0.6480   0.4100 
20    N4       1.7670  -37.6730   21.8260 N.pl3   1  LIG  -0.6924  -0.3690 
21    C11      2.7540  -36.8570   22.5840 C.ar    1  LIG   0.5805   0.4100 
22    C12      2.9040  -34.5090   25.6010 C.3     1  LIG  -0.0620   0.1435 
23    H7       2.2235  -33.7630   25.2820 H       1  LIG   0.0570   0.0000 
24    H8       2.4436  -35.1154   26.3371 H       1  LIG   0.0495   0.0000 
25    H9       3.7654  -34.0491   26.0108 H       1  LIG   0.0519   0.0000 
26    O1      -1.2400  -35.9060   23.9770 O.2     1  LIG  -0.6361  -0.5700 
27    C13      2.3440  -38.7570   21.0360 C.3     1  LIG   0.1354   0.0690 
28    H10      3.1238  -38.3754   20.4296 H       1  LIG   0.0981   0.1000 
29    C14      2.9380  -39.8900   21.8010 C.3     1  LIG  -0.1181  -0.2000 
30    H11      3.8890  -40.1268   21.3997 H       1  LIG   0.0732   0.1000 
31    H12      3.0430  -39.6129   22.8177 H       1  LIG   0.0789   0.1000 
32    C15      1.6390  -40.0610   21.0880 C.3     1  LIG  -0.1196  -0.2000 
33    H13      0.6832  -39.9283   21.5242 H       1  LIG   0.0807   0.1000 
34    H14      1.5292  -40.4423   20.1061 H       1  LIG   0.0733   0.1000 
@<TRIPOS>BOND
1     2     1     ar
2     3     2     1
3     4     2     ar
4     5     4     1
5     6     4     ar
6     7     6     ar
7     8     7     1
8     9     8     1
9     10    8     1
10    11    10    1
11    12    11    ar
12    13    12    1
13    14    12    ar
14    15    14    1
15    16    14    ar
16    17    16    1
17    18    16    ar
18    19    11    ar
19    19    18    ar
20    20    19    1
21    21    1     ar
22    21    7     ar
23    21    20    1
24    22    6     1
25    23    22    1
26    24    22    1
27    25    22    1
28    26    10    2
29    27    20    1
30    28    27    1
31    29    27    1
32    30    29    1
33    31    29    1
34    32    27    1
35    32    29    1
36    33    32    1
37    34    32    1
@<TRIPOS>SUBSTRUCTURE
1   LIG    1    
 
########## Name        : 1VRT.lig
########## Description : AM1BCC_CHARGES =  -0.0002 ORIGINAL_CHARGES =  -0.0000

@<TRIPOS>MOLECULE
1VRT.lig
34    37    1     0     0    
SMALL
USER_CHARGES
@<TRIPOS>ATOM
1     N1       4.0540  -36.9310   22.2210 N.ar    1  LIG  -0.6650  -0.6200 
2     C1       4.9660  -36.2380   22.9390 C.ar    1  LIG   0.3947   0.1600 
3     H1       6.0082  -36.2811   22.6707 H       1  LIG   0.0281   0.1500 
4     C2       4.6240  -35.4500   24.0360 C.ar    1  LIG  -0.2334  -0.1500 
5     H2       5.3884  -34.9151   24.5740 H       1  LIG   0.1480   0.1500 
6     C3       3.3050  -35.3690   24.4150 C.ar    1  LIG  -0.0698  -0.1435 
7     C4       2.3460  -36.0770   23.6860 C.ar    1  LIG  -0.0398   0.1170 
8     N2       0.9890  -36.0280   24.1030 N.am    1  LIG  -0.4596  -0.5470 
9     H3       0.7643  -35.9928   25.0860 H       1  LIG   0.3311   0.3700 
10    C5      -0.1450  -36.0180   23.4080 C.2     1  LIG   0.7361   0.5438 
11    C6      -0.1190  -36.0770   21.8860 C.ar    1  LIG  -0.2550   0.0862 
12    C7      -1.1230  -35.3990   21.1890 C.ar    1  LIG  -0.0321  -0.1500 
13    H4      -1.7552  -34.6955   21.7041 H       1  LIG   0.1623   0.1500 
14    C8      -1.2960  -35.6300   19.8690 C.ar    1  LIG  -0.2723  -0.1500 
15    H5      -2.0662  -35.1073   19.3273 H       1  LIG   0.1522   0.1500 
16    C9      -0.4670  -36.5450   19.2400 C.ar    1  LIG   0.4373   0.1600 
17    H6      -0.5947  -36.7554   18.1915 H       1  LIG   0.0280   0.1500 
18    N3       0.5220  -37.2120   19.8740 N.ar    1  LIG  -0.6893  -0.6200 
19    C10      0.7040  -36.9790   21.1800 C.ar    1  LIG   0.6480   0.4100 
20    N4       1.7670  -37.6730   21.8260 N.pl3   1  LIG  -0.6924  -0.3690 
21    C11      2.7540  -36.8570   22.5840 C.ar    1  LIG   0.5805   0.4100 
22    C12      2.9040  -34.5090   25.6010 C.3     1  LIG  -0.0620   0.1435 
23    H7       2.2235  -33.7630   25.2820 H       1  LIG   0.0570   0.0000 
24    H8       2.4436  -35.1154   26.3371 H       1  LIG   0.0495   0.0000 
25    H9       3.7654  -34.0491   26.0108 H       1  LIG   0.0519   0.0000 
26    O1      -1.2400  -35.9060   23.9770 O.2     1  LIG  -0.6361  -0.5700 
27    C13      2.3440  -38.7570   21.0360 C.3     1  LIG   0.1354   0.0690 
28    H10      3.1238  -38.3754   20.4296 H       1  LIG   0.0981   0.1000 
29    C14      2.9380  -39.8900   21.8010 C.3     1  LIG  -0.1181  -0.2000 
30    H11      3.8890  -40.1268   21.3997 H       1  LIG   0.0732   0.1000 
31    H12      3.0430  -39.6129   22.8177 H       1  LIG   0.0789   0.1000 
32    C15      1.6390  -40.0610   21.0880 C.3     1  LIG  -0.1196  -0.2000 
33    H13      0.6832  -39.9283   21.5242 H       1  LIG   0.0807   0.1000 
34    H14      1.5292  -40.4423   20.1061 H       1  LIG   0.0733   0.1000 
@<TRIPOS>BOND
1     2     1     ar
2     3     2     1
3     4     2     ar
4     5     4     1
5     6     4     ar
6     7     6     ar
7     8     7     1
8     9     8     1
9     10    8     1
10    11    10    1
11    12    11    ar
12    13    12    1
13    14    12    ar
14    15    14    1
15    16    14    ar
16    17    16    1
17    18    16    ar
18    19    11    ar
19    19    18    ar
20    20    19    1
21    21    1     ar
22    21    7     ar
23    21    20    1
24    22    6     1
25    23    22    1
26    24    22    1
27    25    22    1
28    26    10    2
29    27    20    1
30    28    27    1
31    29    27    1
32    30    29    1
33    31    29    1
34    32    27    1
35    32    29    1
36    33    32    1
37    34    32    1
@<TRIPOS>SUBSTRUCTURE
1   LIG    1    
 
########## Name        : 1VRT.lig
########## Description : AM1BCC_CHARGES =  -0.0002 ORIGINAL_CHARGES =  -0.0000

@<TRIPOS>MOLECULE
1VRT.lig
34    37    1     0     0    
SMALL
USER_CHARGES
@<TRIPOS>ATOM
1     N1       4.0540  -36.9310   22.2210 N.ar    1  LIG  -0.6650  -0.6200 
2     C1       4.9660  -36.2380   22.9390 C.ar    1  LIG   0.3947   0.1600 
3     H1       6.0082  -36.2811   22.6707 H       1  LIG   0.0281   0.1500 
4     C2       4.6240  -35.4500   24.0360 C.ar    1  LIG  -0.2334  -0.1500 
5     H2       5.3884  -34.9151   24.5740 H       1  LIG   0.1480   0.1500 
6     C3       3.3050  -35.3690   24.4150 C.ar    1  LIG  -0.0698  -0.1435 
7     C4       2.3460  -36.0770   23.6860 C.ar    1  LIG  -0.0398   0.1170 
8     N2       0.9890  -36.0280   24.1030 N.am    1  LIG  -0.4596  -0.5470 
9     H3       0.7643  -35.9928   25.0860 H       1  LIG   0.3311   0.3700 
10    C5      -0.1450  -36.0180   23.4080 C.2     1  LIG   0.7361   0.5438 
11    C6      -0.1190  -36.0770   21.8860 C.ar    1  LIG  -0.2550   0.0862 
12    C7      -1.1230  -35.3990   21.1890 C.ar    1  LIG  -0.0321  -0.1500 
13    H4      -1.7552  -34.6955   21.7041 H       1  LIG   0.1623   0.1500 
14    C8      -1.2960  -35.6300   19.8690 C.ar    1  LIG  -0.2723  -0.1500 
15    H5      -2.0662  -35.1073   19.3273 H       1  LIG   0.1522   0.1500 
16    C9      -0.4670  -36.5450   19.2400 C.ar    1  LIG   0.4373   0.1600 
17    H6      -0.5947  -36.7554   18.1915 H       1  LIG   0.0280   0.1500 
18    N3       0.5220  -37.2120   19.8740 N.ar    1  LIG  -0.6893  -0.6200 
19    C10      0.7040  -36.9790   21.1800 C.ar    1  LIG   0.6480   0.4100 
20    N4       1.7670  -37.6730   21.8260 N.pl3   1  LIG  -0.6924  -0.3690 
21    C11      2.7540  -36.8570   22.5840 C.ar    1  LIG   0.5805   0.4100 
22    C12      2.9040  -34.5090   25.6010 C.3     1  LIG  -0.0620   0.1435 
23    H7       2.2235  -33.7630   25.2820 H       1  LIG   0.0570   0.0000 
24    H8       2.4436  -35.1154   26.3371 H       1  LIG   0.0495   0.0000 
25    H9       3.7654  -34.0491   26.0108 H       1  LIG   0.0519   0.0000 
26    O1      -1.2400  -35.9060   23.9770 O.2     1  LIG  -0.6361  -0.5700 
27    C13      2.3440  -38.7570   21.0360 C.3     1  LIG   0.1354   0.0690 
28    H10      3.1238  -38.3754   20.4296 H       1  LIG   0.0981   0.1000 
29    C14      2.9380  -39.8900   21.8010 C.3     1  LIG  -0.1181  -0.2000 
30    H11      3.8890  -40.1268   21.3997 H       1  LIG   0.0732   0.1000 
31    H12      3.0430  -39.6129   22.8177 H       1  LIG   0.0789   0.1000 
32    C15      1.6390  -40.0610   21.0880 C.3     1  LIG  -0.1196  -0.2000 
33    H13      0.6832  -39.9283   21.5242 H       1  LIG   0.0807   0.1000 
34    H14      1.5292  -40.4423   20.1061 H       1  LIG   0.0733   0.1000 
@<TRIPOS>BOND
1     2     1     ar
2     3     2     1
3     4     2     ar
4     5     4     1
5     6     4     ar
6     7     6     ar
7     8     7     1
8     9     8     1
9     10    8     1
10    11    10    1
11    12    11    ar
12    13    12    1
13    14    12    ar
14    15    14    1
15    16    14    ar
16    17    16    1
17    18    16    ar
18    19    11    ar
19    19    18    ar
20    20    19    1
21    21    1     ar
22    21    7     ar
23    21    20    1
24    22    6     1
25    23    22    1
26    24    22    1
27    25    22    1
28    26    10    2
29    27    20    1
30    28    27    1
31    29    27    1
32    30    29    1
33    31    29    1
34    32    27    1
35    32    29    1
36    33    32    1
37    34    32    1
@<TRIPOS>SUBSTRUCTURE
1   LIG    1    
 
########## Name        : 1VRT.lig
########## Description : AM1BCC_CHARGES =  -0.0002 ORIGINAL_CHARGES =  -0.0000

@<TRIPOS>MOLECULE
1VRT.lig
34    37    1     0     0    
SMALL
USER_CHARGES
@<TRIPOS>ATOM
1     N1       4.0540  -36.9310   22.2210 N.ar    1  LIG  -0.6650  -0.6200 
2     C1       4.9660  -36.2380   22.9390 C.ar    1  LIG   0.3947   0.1600 
3     H1       6.0082  -36.2811   22.6707 H       1  LIG   0.0281   0.1500 
4     C2       4.6240  -35.4500   24.0360 C.ar    1  LIG  -0.2334  -0.1500 
5     H2       5.3884  -34.9151   24.5740 H       1  LIG   0.1480   0.1500 
6     C3       3.3050  -35.3690   24.4150 C.ar    1  LIG  -0.0698  -0.1435 
7     C4       2.3460  -36.0770   23.6860 C.ar    1  LIG  -0.0398   0.1170 
8     N2       0.9890  -36.0280   24.1030 N.am    1  LIG  -0.4596  -0.5470 
9     H3       0.7643  -35.9928   25.0860 H       1  LIG   0.3311   0.3700 
10    C5      -0.1450  -36.0180   23.4080 C.2     1  LIG   0.7361   0.5438 
11    C6      -0.1190  -36.0770   21.8860 C.ar    1  LIG  -0.2550   0.0862 
12    C7      -1.1230  -35.3990   21.1890 C.ar    1  LIG  -0.0321  -0.1500 
13    H4      -1.7552  -34.6955   21.7041 H       1  LIG   0.1623   0.1500 
14    C8      -1.2960  -35.6300   19.8690 C.ar    1  LIG  -0.2723  -0.1500 
15    H5      -2.0662  -35.1073   19.3273 H       1  LIG   0.1522   0.1500 
16    C9      -0.4670  -36.5450   19.2400 C.ar    1  LIG   0.4373   0.1600 
17    H6      -0.5947  -36.7554   18.1915 H       1  LIG   0.0280   0.1500 
18    N3       0.5220  -37.2120   19.8740 N.ar    1  LIG  -0.6893  -0.6200 
19    C10      0.7040  -36.9790   21.1800 C.ar    1  LIG   0.6480   0.4100 
20    N4       1.7670  -37.6730   21.8260 N.pl3   1  LIG  -0.6924  -0.3690 
21    C11      2.7540  -36.8570   22.5840 C.ar    1  LIG   0.5805   0.4100 
22    C12      2.9040  -34.5090   25.6010 C.3     1  LIG  -0.0620   0.1435 
23    H7       2.2235  -33.7630   25.2820 H       1  LIG   0.0570   0.0000 
24    H8       2.4436  -35.1154   26.3371 H       1  LIG   0.0495   0.0000 
25    H9       3.7654  -34.0491   26.0108 H       1  LIG   0.0519   0.0000 
26    O1      -1.2400  -35.9060   23.9770 O.2     1  LIG  -0.6361  -0.5700 
27    C13      2.3440  -38.7570   21.0360 C.3     1  LIG   0.1354   0.0690 
28    H10      3.1238  -38.3754   20.4296 H       1  LIG   0.0981   0.1000 
29    C14      2.9380  -39.8900   21.8010 C.3     1  LIG  -0.1181  -0.2000 
30    H11      3.8890  -40.1268   21.3997 H       1  LIG   0.0732   0.1000 
31    H12      3.0430  -39.6129   22.8177 H       1  LIG   0.0789   0.1000 
32    C15      1.6390  -40.0610   21.0880 C.3     1  LIG  -0.1196  -0.2000 
33    H13      0.6832  -39.9283   21.5242 H       1  LIG   0.0807   0.1000 
34    H14      1.5292  -40.4423   20.1061 H       1  LIG   0.0733   0.1000 
@<TRIPOS>BOND
1     2     1     ar
2     3     2     1
3     4     2     ar
4     5     4     1
5     6     4     ar
6     7     6     ar
7     8     7     1
8     9     8     1
9     10    8     1
10    11    10    1
11    12    11    ar
12    13    12    1
13    14    12    ar
14    15    14    1
15    16    14    ar
16    17    16    1
17    18    16    ar
18    19    11    ar
19    19    18    ar
20    20    19    1
21    21    1     ar
22    21    7     ar
23    21    20    1
24    22    6     1
25    23    22    1
26    24    22    1
27    25    22    1
28    26    10    2
29    27    20    1
30    28    27    1
31    29    27    1
32    30    29    1
33    31    29    1
34    32    27    1
35    32    29    1
36    33    32    1
37    34    32    1
@<TRIPOS>SUBSTRUCTURE
1   LIG    1    
 
########## Name        : 1VRT.lig
########## Description : AM1BCC_CHARGES =  -0.0002 ORIGINAL_CHARGES =  -0.0000

@<TRIPOS>MOLECULE
1VRT.lig
34    37    1     0     0    
SMALL
USER_CHARGES
@<TRIPOS>ATOM
1     N1       4.0540  -36.9310   22.2210 N.ar    1  LIG  -0.6650  -0.6200 
2     C1       4.9660  -36.2380   22.9390 C.ar    1  LIG   0.3947   0.1600 
3     H1       6.0082  -36.2811   22.6707 H       1  LIG   0.0281   0.1500 
4     C2       4.6240  -35.4500   24.0360 C.ar    1  LIG  -0.2334  -0.1500 
5     H2       5.3884  -34.9151   24.5740 H       1  LIG   0.1480   0.1500 
6     C3       3.3050  -35.3690   24.4150 C.ar    1  LIG  -0.0698  -0.1435 
7     C4       2.3460  -36.0770   23.6860 C.ar    1  LIG  -0.0398   0.1170 
8     N2       0.9890  -36.0280   24.1030 N.am    1  LIG  -0.4596  -0.5470 
9     H3       0.7643  -35.9928   25.0860 H       1  LIG   0.3311   0.3700 
10    C5      -0.1450  -36.0180   23.4080 C.2     1  LIG   0.7361   0.5438 
11    C6      -0.1190  -36.0770   21.8860 C.ar    1  LIG  -0.2550   0.0862 
12    C7      -1.1230  -35.3990   21.1890 C.ar    1  LIG  -0.0321  -0.1500 
13    H4      -1.7552  -34.6955   21.7041 H       1  LIG   0.1623   0.1500 
14    C8      -1.2960  -35.6300   19.8690 C.ar    1  LIG  -0.2723  -0.1500 
15    H5      -2.0662  -35.1073   19.3273 H       1  LIG   0.1522   0.1500 
16    C9      -0.4670  -36.5450   19.2400 C.ar    1  LIG   0.4373   0.1600 
17    H6      -0.5947  -36.7554   18.1915 H       1  LIG   0.0280   0.1500 
18    N3       0.5220  -37.2120   19.8740 N.ar    1  LIG  -0.6893  -0.6200 
19    C10      0.7040  -36.9790   21.1800 C.ar    1  LIG   0.6480   0.4100 
20    N4       1.7670  -37.6730   21.8260 N.pl3   1  LIG  -0.6924  -0.3690 
21    C11      2.7540  -36.8570   22.5840 C.ar    1  LIG   0.5805   0.4100 
22    C12      2.9040  -34.5090   25.6010 C.3     1  LIG  -0.0620   0.1435 
23    H7       2.2235  -33.7630   25.2820 H       1  LIG   0.0570   0.0000 
24    H8       2.4436  -35.1154   26.3371 H       1  LIG   0.0495   0.0000 
25    H9       3.7654  -34.0491   26.0108 H       1  LIG   0.0519   0.0000 
26    O1      -1.2400  -35.9060   23.9770 O.2     1  LIG  -0.6361  -0.5700 
27    C13      2.3440  -38.7570   21.0360 C.3     1  LIG   0.1354   0.0690 
28    H10      3.1238  -38.3754   20.4296 H       1  LIG   0.0981   0.1000 
29    C14      2.9380  -39.8900   21.8010 C.3     1  LIG  -0.1181  -0.2000 
30    H11      3.8890  -40.1268   21.3997 H       1  LIG   0.0732   0.1000 
31    H12      3.0430  -39.6129   22.8177 H       1  LIG   0.0789   0.1000 
32    C15      1.6390  -40.0610   21.0880 C.3     1  LIG  -0.1196  -0.2000 
33    H13      0.6832  -39.9283   21.5242 H       1  LIG   0.0807   0.1000 
34    H14      1.5292  -40.4423   20.1061 H       1  LIG   0.0733   0.1000 
@<TRIPOS>BOND
1     2     1     ar
2     3     2     1
3     4     2     ar
4     5     4     1
5     6     4     ar
6     7     6     ar
7     8     7     1
8     9     8     1
9     10    8     1
10    11    10    1
11    12    11    ar
12    13    12    1
13    14    12    ar
14    15    14    1
15    16    14    ar
16    17    16    1
17    18    16    ar
18    19    11    ar
19    19    18    ar
20    20    19    1
21    21    1     ar
22    21    7     ar
23    21    20    1
24    22    6     1
25    23    22    1
26    24    22    1
27    25    22    1
28    26    10    2
29    27    20    1
30    28    27    1
31    29    27    1
32    30    29    1
33    31    29    1
34    32    27    1
35    32    29    1
36    33    32    1
37    34    32    1
@<TRIPOS>SUBSTRUCTURE
1   LIG    1    
 
########## Name        : 1VRT.lig
########## Description : AM1BCC_CHARGES =  -0.0002 ORIGINAL_CHARGES =  -0.0000

@<TRIPOS>MOLECULE
1VRT.lig
34    37    1     0     0    
SMALL
USER_CHARGES
@<TRIPOS>ATOM
1     N1       4.0540  -36.9310   22.2210 N.ar    1  LIG  -0.6650  -0.6200 
2     C1       4.9660  -36.2380   22.9390 C.ar    1  LIG   0.3947   0.1600 
3     H1       6.0082  -36.2811   22.6707 H       1  LIG   0.0281   0.1500 
4     C2       4.6240  -35.4500   24.0360 C.ar    1  LIG  -0.2334  -0.1500 
5     H2       5.3884  -34.9151   24.5740 H       1  LIG   0.1480   0.1500 
6     C3       3.3050  -35.3690   24.4150 C.ar    1  LIG  -0.0698  -0.1435 
7     C4       2.3460  -36.0770   23.6860 C.ar    1  LIG  -0.0398   0.1170 
8     N2       0.9890  -36.0280   24.1030 N.am    1  LIG  -0.4596  -0.5470 
9     H3       0.7643  -35.9928   25.0860 H       1  LIG   0.3311   0.3700 
10    C5      -0.1450  -36.0180   23.4080 C.2     1  LIG   0.7361   0.5438 
11    C6      -0.1190  -36.0770   21.8860 C.ar    1  LIG  -0.2550   0.0862 
12    C7      -1.1230  -35.3990   21.1890 C.ar    1  LIG  -0.0321  -0.1500 
13    H4      -1.7552  -34.6955   21.7041 H       1  LIG   0.1623   0.1500 
14    C8      -1.2960  -35.6300   19.8690 C.ar    1  LIG  -0.2723  -0.1500 
15    H5      -2.0662  -35.1073   19.3273 H       1  LIG   0.1522   0.1500 
16    C9      -0.4670  -36.5450   19.2400 C.ar    1  LIG   0.4373   0.1600 
17    H6      -0.5947  -36.7554   18.1915 H       1  LIG   0.0280   0.1500 
18    N3       0.5220  -37.2120   19.8740 N.ar    1  LIG  -0.6893  -0.6200 
19    C10      0.7040  -36.9790   21.1800 C.ar    1  LIG   0.6480   0.4100 
20    N4       1.7670  -37.6730   21.8260 N.pl3   1  LIG  -0.6924  -0.3690 
21    C11      2.7540  -36.8570   22.5840 C.ar    1  LIG   0.5805   0.4100 
22    C12      2.9040  -34.5090   25.6010 C.3     1  LIG  -0.0620   0.1435 
23    H7       2.2235  -33.7630   25.2820 H       1  LIG   0.0570   0.0000 
24    H8       2.4436  -35.1154   26.3371 H       1  LIG   0.0495   0.0000 
25    H9       3.7654  -34.0491   26.0108 H       1  LIG   0.0519   0.0000 
26    O1      -1.2400  -35.9060   23.9770 O.2     1  LIG  -0.6361  -0.5700 
27    C13      2.3440  -38.7570   21.0360 C.3     1  LIG   0.1354   0.0690 
28    H10      3.1238  -38.3754   20.4296 H       1  LIG   0.0981   0.1000 
29    C14      2.9380  -39.8900   21.8010 C.3     1  LIG  -0.1181  -0.2000 
30    H11      3.8890  -40.1268   21.3997 H       1  LIG   0.0732   0.1000 
31    H12      3.0430  -39.6129   22.8177 H       1  LIG   0.0789   0.1000 
32    C15      1.6390  -40.0610   21.0880 C.3     1  LIG  -0.1196  -0.2000 
33    H13      0.6832  -39.9283   21.5242 H       1  LIG   0.0807   0.1000 
34    H14      1.5292  -40.4423   20.1061 H       1  LIG   0.0733   0.1000 
@<TRIPOS>BOND
1     2     1     ar
2     3     2     1
3     4     2     ar
4     5     4     1
5     6     4     ar
6     7     6     ar
7     8     7     1
8     9     8     1
9     10    8     1
10    11    10    1
11    12    11    ar
12    13    12    1
13    14    12    ar
14    15    14    1
15    16    14    ar
16    17    16    1
17    18    16    ar
18    19    11    ar
19    19    18    ar
20    20    19    1
21    21    1     ar
22    21    7     ar
23    21    20    1
24    22    6     1
25    23    22    1
26    24    22    1
27    25    22    1
28    26    10    2
29    27    20    1
30    28    27    1
31    29    27    1
32    30    29    1
33    31    29    1
34    32    27    1
35    32    29    1
36    33    32    1
37    34    32    1
@<TRIPOS>SUBSTRUCTURE
1   LIG    1    
 
########## Name        : 1VRT.lig
########## Description : AM1BCC_CHARGES =  -0.0002 ORIGINAL_CHARGES =  -0.0000

@<TRIPOS>MOLECULE
1VRT.lig
34    37    1     0     0    
SMALL
USER_CHARGES
@<TRIPOS>ATOM
1     N1       4.0540  -36.9310   22.2210 N.ar    1  LIG  -0.6650  -0.6200 
2     C1       4.9660  -36.2380   22.9390 C.ar    1  LIG   0.3947   0.1600 
3     H1       6.0082  -36.2811   22.6707 H       1  LIG   0.0281   0.1500 
4     C2       4.6240  -35.4500   24.0360 C.ar    1  LIG  -0.2334  -0.1500 
5     H2       5.3884  -34.9151   24.5740 H       1  LIG   0.1480   0.1500 
6     C3       3.3050  -35.3690   24.4150 C.ar    1  LIG  -0.0698  -0.1435 
7     C4       2.3460  -36.0770   23.6860 C.ar    1  LIG  -0.0398   0.1170 
8     N2       0.9890  -36.0280   24.1030 N.am    1  LIG  -0.4596  -0.5470 
9     H3       0.7643  -35.9928   25.0860 H       1  LIG   0.3311   0.3700 
10    C5      -0.1450  -36.0180   23.4080 C.2     1  LIG   0.7361   0.5438 
11    C6      -0.1190  -36.0770   21.8860 C.ar    1  LIG  -0.2550   0.0862 
12    C7      -1.1230  -35.3990   21.1890 C.ar    1  LIG  -0.0321  -0.1500 
13    H4      -1.7552  -34.6955   21.7041 H       1  LIG   0.1623   0.1500 
14    C8      -1.2960  -35.6300   19.8690 C.ar    1  LIG  -0.2723  -0.1500 
15    H5      -2.0662  -35.1073   19.3273 H       1  LIG   0.1522   0.1500 
16    C9      -0.4670  -36.5450   19.2400 C.ar    1  LIG   0.4373   0.1600 
17    H6      -0.5947  -36.7554   18.1915 H       1  LIG   0.0280   0.1500 
18    N3       0.5220  -37.2120   19.8740 N.ar    1  LIG  -0.6893  -0.6200 
19    C10      0.7040  -36.9790   21.1800 C.ar    1  LIG   0.6480   0.4100 
20    N4       1.7670  -37.6730   21.8260 N.pl3   1  LIG  -0.6924  -0.3690 
21    C11      2.7540  -36.8570   22.5840 C.ar    1  LIG   0.5805   0.4100 
22    C12      2.9040  -34.5090   25.6010 C.3     1  LIG  -0.0620   0.1435 
23    H7       2.2235  -33.7630   25.2820 H       1  LIG   0.0570   0.0000 
24    H8       2.4436  -35.1154   26.3371 H       1  LIG   0.0495   0.0000 
25    H9       3.7654  -34.0491   26.0108 H       1  LIG   0.0519   0.0000 
26    O1      -1.2400  -35.9060   23.9770 O.2     1  LIG  -0.6361  -0.5700 
27    C13      2.3440  -38.7570   21.0360 C.3     1  LIG   0.1354   0.0690 
28    H10      3.1238  -38.3754   20.4296 H       1  LIG   0.0981   0.1000 
29    C14      2.9380  -39.8900   21.8010 C.3     1  LIG  -0.1181  -0.2000 
30    H11      3.8890  -40.1268   21.3997 H       1  LIG   0.0732   0.1000 
31    H12      3.0430  -39.6129   22.8177 H       1  LIG   0.0789   0.1000 
32    C15      1.6390  -40.0610   21.0880 C.3     1  LIG  -0.1196  -0.2000 
33    H13      0.6832  -39.9283   21.5242 H       1  LIG   0.0807   0.1000 
34    H14      1.5292  -40.4423   20.1061 H       1  LIG   0.0733   0.1000 
@<TRIPOS>BOND
1     2     1     ar
2     3     2     1
3     4     2     ar
4     5     4     1
5     6     4     ar
6     7     6     ar
7     8     7     1
8     9     8     1
9     10    8     1
10    11    10    1
11    12    11    ar
12    13    12    1
13    14    12    ar
14    15    14    1
15    16    14    ar
16    17    16    1
17    18    16    ar
18    19    11    ar
19    19    18    ar
20    20    19    1
21    21    1     ar
22    21    7     ar
23    21    20    1
24    22    6     1
25    23    22    1
26    24    22    1
27    25    22    1
28    26    10    2
29    27    20    1
30    28    27    1
31    29    27    1
32    30    29    1
33    31    29    1
34    32    27    1
35    32    29    1
36    33    32    1
37    34    32    1
@<TRIPOS>SUBSTRUCTURE
1   LIG    1    
 
########## Name        : 1VRT.lig
########## Description : AM1BCC_CHARGES =  -0.0002 ORIGINAL_CHARGES =  -0.0000

@<TRIPOS>MOLECULE
1VRT.lig
34    37    1     0     0    
SMALL
USER_CHARGES
@<TRIPOS>ATOM
1     N1       4.0540  -36.9310   22.2210 N.ar    1  LIG  -0.6650  -0.6200 
2     C1       4.9660  -36.2380   22.9390 C.ar    1  LIG   0.3947   0.1600 
3     H1       6.0082  -36.2811   22.6707 H       1  LIG   0.0281   0.1500 
4     C2       4.6240  -35.4500   24.0360 C.ar    1  LIG  -0.2334  -0.1500 
5     H2       5.3884  -34.9151   24.5740 H       1  LIG   0.1480   0.1500 
6     C3       3.3050  -35.3690   24.4150 C.ar    1  LIG  -0.0698  -0.1435 
7     C4       2.3460  -36.0770   23.6860 C.ar    1  LIG  -0.0398   0.1170 
8     N2       0.9890  -36.0280   24.1030 N.am    1  LIG  -0.4596  -0.5470 
9     H3       0.7643  -35.9928   25.0860 H       1  LIG   0.3311   0.3700 
10    C5      -0.1450  -36.0180   23.4080 C.2     1  LIG   0.7361   0.5438 
11    C6      -0.1190  -36.0770   21.8860 C.ar    1  LIG  -0.2550   0.0862 
12    C7      -1.1230  -35.3990   21.1890 C.ar    1  LIG  -0.0321  -0.1500 
13    H4      -1.7552  -34.6955   21.7041 H       1  LIG   0.1623   0.1500 
14    C8      -1.2960  -35.6300   19.8690 C.ar    1  LIG  -0.2723  -0.1500 
15    H5      -2.0662  -35.1073   19.3273 H       1  LIG   0.1522   0.1500 
16    C9      -0.4670  -36.5450   19.2400 C.ar    1  LIG   0.4373   0.1600 
17    H6      -0.5947  -36.7554   18.1915 H       1  LIG   0.0280   0.1500 
18    N3       0.5220  -37.2120   19.8740 N.ar    1  LIG  -0.6893  -0.6200 
19    C10      0.7040  -36.9790   21.1800 C.ar    1  LIG   0.6480   0.4100 
20    N4       1.7670  -37.6730   21.8260 N.pl3   1  LIG  -0.6924  -0.3690 
21    C11      2.7540  -36.8570   22.5840 C.ar    1  LIG   0.5805   0.4100 
22    C12      2.9040  -34.5090   25.6010 C.3     1  LIG  -0.0620   0.1435 
23    H7       2.2235  -33.7630   25.2820 H       1  LIG   0.0570   0.0000 
24    H8       2.4436  -35.1154   26.3371 H       1  LIG   0.0495   0.0000 
25    H9       3.7654  -34.0491   26.0108 H       1  LIG   0.0519   0.0000 
26    O1      -1.2400  -35.9060   23.9770 O.2     1  LIG  -0.6361  -0.5700 
27    C13      2.3440  -38.7570   21.0360 C.3     1  LIG   0.1354   0.0690 
28    H10      3.1238  -38.3754   20.4296 H       1  LIG   0.0981   0.1000 
29    C14      2.9380  -39.8900   21.8010 C.3     1  LIG  -0.1181  -0.2000 
30    H11      3.8890  -40.1268   21.3997 H       1  LIG   0.0732   0.1000 
31    H12      3.0430  -39.6129   22.8177 H       1  LIG   0.0789   0.1000 
32    C15      1.6390  -40.0610   21.0880 C.3     1  LIG  -0.1196  -0.2000 
33    H13      0.6832  -39.9283   21.5242 H       1  LIG   0.0807   0.1000 
34    H14      1.5292  -40.4423   20.1061 H       1  LIG   0.0733   0.1000 
@<TRIPOS>BOND
1     2     1     ar
2     3     2     1
3     4     2     ar
4     5     4     1
5     6     4     ar
6     7     6     ar
7     8     7     1
8     9     8     1
9     10    8     1
10    11    10    1
11    12    11    ar
12    13    12    1
13    14    12    ar
14    15    14    1
15    16    14    ar
16    17    16    1
17    18    16    ar
18    19    11    ar
19    19    18    ar
20    20    19    1
21    21    1     ar
22    21    7     ar
23    21    20    1
24    22    6     1
25    23    22    1
26    24    22    1
27    25    22    1
28    26    10    2
29    27    20    1
30    28    27    1
31    29    27    1
32    30    29    1
33    31    29    1
34    32    27    1
35    32    29    1
36    33    32    1
37    34    32    1
@<TRIPOS>SUBSTRUCTURE
1   LIG    1    
 
########## Name        : 1VRT.lig
########## Description : AM1BCC_CHARGES =  -0.0002 ORIGINAL_CHARGES =  -0.0000

@<TRIPOS>MOLECULE
1VRT.lig
34    37    1     0     0    
SMALL
USER_CHARGES
@<TRIPOS>ATOM
1     N1       4.0540  -36.9310   22.2210 N.ar    1  LIG  -0.6650  -0.6200 
2     C1       4.9660  -36.2380   22.9390 C.ar    1  LIG   0.3947   0.1600 
3     H1       6.0082  -36.2811   22.6707 H       1  LIG   0.0281   0.1500 
4     C2       4.6240  -35.4500   24.0360 C.ar    1  LIG  -0.2334  -0.1500 
5     H2       5.3884  -34.9151   24.5740 H       1  LIG   0.1480   0.1500 
6     C3       3.3050  -35.3690   24.4150 C.ar    1  LIG  -0.0698  -0.1435 
7     C4       2.3460  -36.0770   23.6860 C.ar    1  LIG  -0.0398   0.1170 
8     N2       0.9890  -36.0280   24.1030 N.am    1  LIG  -0.4596  -0.5470 
9     H3       0.7643  -35.9928   25.0860 H       1  LIG   0.3311   0.3700 
10    C5      -0.1450  -36.0180   23.4080 C.2     1  LIG   0.7361   0.5438 
11    C6      -0.1190  -36.0770   21.8860 C.ar    1  LIG  -0.2550   0.0862 
12    C7      -1.1230  -35.3990   21.1890 C.ar    1  LIG  -0.0321  -0.1500 
13    H4      -1.7552  -34.6955   21.7041 H       1  LIG   0.1623   0.1500 
14    C8      -1.2960  -35.6300   19.8690 C.ar    1  LIG  -0.2723  -0.1500 
15    H5      -2.0662  -35.1073   19.3273 H       1  LIG   0.1522   0.1500 
16    C9      -0.4670  -36.5450   19.2400 C.ar    1  LIG   0.4373   0.1600 
17    H6      -0.5947  -36.7554   18.1915 H       1  LIG   0.0280   0.1500 
18    N3       0.5220  -37.2120   19.8740 N.ar    1  LIG  -0.6893  -0.6200 
19    C10      0.7040  -36.9790   21.1800 C.ar    1  LIG   0.6480   0.4100 
20    N4       1.7670  -37.6730   21.8260 N.pl3   1  LIG  -0.6924  -0.3690 
21    C11      2.7540  -36.8570   22.5840 C.ar    1  LIG   0.5805   0.4100 
22    C12      2.9040  -34.5090   25.6010 C.3     1  LIG  -0.0620   0.1435 
23    H7       2.2235  -33.7630   25.2820 H       1  LIG   0.0570   0.0000 
24    H8       2.4436  -35.1154   26.3371 H       1  LIG   0.0495   0.0000 
25    H9       3.7654  -34.0491   26.0108 H       1  LIG   0.0519   0.0000 
26    O1      -1.2400  -35.9060   23.9770 O.2     1  LIG  -0.6361  -0.5700 
27    C13      2.3440  -38.7570   21.0360 C.3     1  LIG   0.1354   0.0690 
28    H10      3.1238  -38.3754   20.4296 H       1  LIG   0.0981   0.1000 
29    C14      2.9380  -39.8900   21.8010 C.3     1  LIG  -0.1181  -0.2000 
30    H11      3.8890  -40.1268   21.3997 H       1  LIG   0.0732   0.1000 
31    H12      3.0430  -39.6129   22.8177 H       1  LIG   0.0789   0.1000 
32    C15      1.6390  -40.0610   21.0880 C.3     1  LIG  -0.1196  -0.2000 
33    H13      0.6832  -39.9283   21.5242 H       1  LIG   0.0807   0.1000 
34    H14      1.5292  -40.4423   20.1061 H       1  LIG   0.0733   0.1000 
@<TRIPOS>BOND
1     2     1     ar
2     3     2     1
3     4     2     ar
4     5     4     1
5     6     4     ar
6     7     6     ar
7     8     7     1
8     9     8     1
9     10    8     1
10    11    10    1
11    12    11    ar
12    13    12    1
13    14    12    ar
14    15    14    1
15    16    14    ar
16    17    16    1
17    18    16    ar
18    19    11    ar
19    19    18    ar
20    20    19    1
21    21    1     ar
22    21    7     ar
23    21    20    1
24    22    6     1
25    23    22    1
26    24    22    1
27    25    22    1
28    26    10    2
29    27    20    1
30    28    27    1
31    29    27    1
32    30    29    1
33    31    29    1
34    32    27    1
35    32    29    1
36    33    32    1
37    34    32    1
@<TRIPOS>SUBSTRUCTURE
1   LIG    1    
 
########## Name        : 1VRT.lig
########## Description : AM1BCC_CHARGES =  -0.0002 ORIGINAL_CHARGES =  -0.0000

@<TRIPOS>MOLECULE
1VRT.lig
34    37    1     0     0    
SMALL
USER_CHARGES
@<TRIPOS>ATOM
1     N1       4.0540  -36.9310   22.2210 N.ar    1  LIG  -0.6650  -0.6200 
2     C1       4.9660  -36.2380   22.9390 C.ar    1  LIG   0.3947   0.1600 
3     H1       6.0082  -36.2811   22.6707 H       1  LIG   0.0281   0.1500 
4     C2       4.6240  -35.4500   24.0360 C.ar    1  LIG  -0.2334  -0.1500 
5     H2       5.3884  -34.9151   24.5740 H       1  LIG   0.1480   0.1500 
6     C3       3.3050  -35.3690   24.4150 C.ar    1  LIG  -0.0698  -0.1435 
7     C4       2.3460  -36.0770   23.6860 C.ar    1  LIG  -0.0398   0.1170 
8     N2       0.9890  -36.0280   24.1030 N.am    1  LIG  -0.4596  -0.5470 
9     H3       0.7643  -35.9928   25.0860 H       1  LIG   0.3311   0.3700 
10    C5      -0.1450  -36.0180   23.4080 C.2     1  LIG   0.7361   0.5438 
11    C6      -0.1190  -36.0770   21.8860 C.ar    1  LIG  -0.2550   0.0862 
12    C7      -1.1230  -35.3990   21.1890 C.ar    1  LIG  -0.0321  -0.1500 
13    H4      -1.7552  -34.6955   21.7041 H       1  LIG   0.1623   0.1500 
14    C8      -1.2960  -35.6300   19.8690 C.ar    1  LIG  -0.2723  -0.1500 
15    H5      -2.0662  -35.1073   19.3273 H       1  LIG   0.1522   0.1500 
16    C9      -0.4670  -36.5450   19.2400 C.ar    1  LIG   0.4373   0.1600 
17    H6      -0.5947  -36.7554   18.1915 H       1  LIG   0.0280   0.1500 
18    N3       0.5220  -37.2120   19.8740 N.ar    1  LIG  -0.6893  -0.6200 
19    C10      0.7040  -36.9790   21.1800 C.ar    1  LIG   0.6480   0.4100 
20    N4       1.7670  -37.6730   21.8260 N.pl3   1  LIG  -0.6924  -0.3690 
21    C11      2.7540  -36.8570   22.5840 C.ar    1  LIG   0.5805   0.4100 
22    C12      2.9040  -34.5090   25.6010 C.3     1  LIG  -0.0620   0.1435 
23    H7       2.2235  -33.7630   25.2820 H       1  LIG   0.0570   0.0000 
24    H8       2.4436  -35.1154   26.3371 H       1  LIG   0.0495   0.0000 
25    H9       3.7654  -34.0491   26.0108 H       1  LIG   0.0519   0.0000 
26    O1      -1.2400  -35.9060   23.9770 O.2     1  LIG  -0.6361  -0.5700 
27    C13      2.3440  -38.7570   21.0360 C.3     1  LIG   0.1354   0.0690 
28    H10      3.1238  -38.3754   20.4296 H       1  LIG   0.0981   0.1000 
29    C14      2.9380  -39.8900   21.8010 C.3     1  LIG  -0.1181  -0.2000 
30    H11      3.8890  -40.1268   21.3997 H       1  LIG   0.0732   0.1000 
31    H12      3.0430  -39.6129   22.8177 H       1  LIG   0.0789   0.1000 
32    C15      1.6390  -40.0610   21.0880 C.3     1  LIG  -0.1196  -0.2000 
33    H13      0.6832  -39.9283   21.5242 H       1  LIG   0.0807   0.1000 
34    H14      1.5292  -40.4423   20.1061 H       1  LIG   0.0733   0.1000 
@<TRIPOS>BOND
1     2     1     ar
2     3     2     1
3     4     2     ar
4     5     4     1
5     6     4     ar
6     7     6     ar
7     8     7     1
8     9     8     1
9     10    8     1
10    11    10    1
11    12    11    ar
12    13    12    1
13    14    12    ar
14    15    14    1
15    16    14    ar
16    17    16    1
17    18    16    ar
18    19    11    ar
19    19    18    ar
20    20    19    1
21    21    1     ar
22    21    7     ar
23    21    20    1
24    22    6     1
25    23    22    1
26    24    22    1
27    25    22    1
28    26    10    2
29    27    20    1
30    28    27    1
31    29    27    1
32    30    29    1
33    31    29    1
34    32    27    1
35    32    29    1
36    33    32    1
37    34    32    1
@<TRIPOS>SUBSTRUCTURE
1   LIG    1    
 
########## Name        : 1VRT.lig
########## Description : AM1BCC_CHARGES =  -0.0002 ORIGINAL_CHARGES =  -0.0000

@<TRIPOS>MOLECULE
1VRT.lig
34    37    1     0     0    
SMALL
USER_CHARGES
@<TRIPOS>ATOM
1     N1       4.0540  -36.9310   22.2210 N.ar    1  LIG  -0.6650  -0.6200 
2     C1       4.9660  -36.2380   22.9390 C.ar    1  LIG   0.3947   0.1600 
3     H1       6.0082  -36.2811   22.6707 H       1  LIG   0.0281   0.1500 
4     C2       4.6240  -35.4500   24.0360 C.ar    1  LIG  -0.2334  -0.1500 
5     H2       5.3884  -34.9151   24.5740 H       1  LIG   0.1480   0.1500 
6     C3       3.3050  -35.3690   24.4150 C.ar    1  LIG  -0.0698  -0.1435 
7     C4       2.3460  -36.0770   23.6860 C.ar    1  LIG  -0.0398   0.1170 
8     N2       0.9890  -36.0280   24.1030 N.am    1  LIG  -0.4596  -0.5470 
9     H3       0.7643  -35.9928   25.0860 H       1  LIG   0.3311   0.3700 
10    C5      -0.1450  -36.0180   23.4080 C.2     1  LIG   0.7361   0.5438 
11    C6      -0.1190  -36.0770   21.8860 C.ar    1  LIG  -0.2550   0.0862 
12    C7      -1.1230  -35.3990   21.1890 C.ar    1  LIG  -0.0321  -0.1500 
13    H4      -1.7552  -34.6955   21.7041 H       1  LIG   0.1623   0.1500 
14    C8      -1.2960  -35.6300   19.8690 C.ar    1  LIG  -0.2723  -0.1500 
15    H5      -2.0662  -35.1073   19.3273 H       1  LIG   0.1522   0.1500 
16    C9      -0.4670  -36.5450   19.2400 C.ar    1  LIG   0.4373   0.1600 
17    H6      -0.5947  -36.7554   18.1915 H       1  LIG   0.0280   0.1500 
18    N3       0.5220  -37.2120   19.8740 N.ar    1  LIG  -0.6893  -0.6200 
19    C10      0.7040  -36.9790   21.1800 C.ar    1  LIG   0.6480   0.4100 
20    N4       1.7670  -37.6730   21.8260 N.pl3   1  LIG  -0.6924  -0.3690 
21    C11      2.7540  -36.8570   22.5840 C.ar    1  LIG   0.5805   0.4100 
22    C12      2.9040  -34.5090   25.6010 C.3     1  LIG  -0.0620   0.1435 
23    H7       2.2235  -33.7630   25.2820 H       1  LIG   0.0570   0.0000 
24    H8       2.4436  -35.1154   26.3371 H       1  LIG   0.0495   0.0000 
25    H9       3.7654  -34.0491   26.0108 H       1  LIG   0.0519   0.0000 
26    O1      -1.2400  -35.9060   23.9770 O.2     1  LIG  -0.6361  -0.5700 
27    C13      2.3440  -38.7570   21.0360 C.3     1  LIG   0.1354   0.0690 
28    H10      3.1238  -38.3754   20.4296 H       1  LIG   0.0981   0.1000 
29    C14      2.9380  -39.8900   21.8010 C.3     1  LIG  -0.1181  -0.2000 
30    H11      3.8890  -40.1268   21.3997 H       1  LIG   0.0732   0.1000 
31    H12      3.0430  -39.6129   22.8177 H       1  LIG   0.0789   0.1000 
32    C15      1.6390  -40.0610   21.0880 C.3     1  LIG  -0.1196  -0.2000 
33    H13      0.6832  -39.9283   21.5242 H       1  LIG   0.0807   0.1000 
34    H14      1.5292  -40.4423   20.1061 H       1  LIG   0.0733   0.1000 
@<TRIPOS>BOND
1     2     1     ar
2     3     2     1
3     4     2     ar
4     5     4     1
5     6     4     ar
6     7     6     ar
7     8     7     1
8     9     8     1
9     10    8     1
10    11    10    1
11    12    11    ar
12    13    12    1
13    14    12    ar
14    15    14    1
15    16    14    ar
16    17    16    1
17    18    16    ar
18    19    11    ar
19    19    18    ar
20    20    19    1
21    21    1     ar
22    21    7     ar
23    21    20    1
24    22    6     1
25    23    22    1
26    24    22    1
27    25    22    1
28    26    10    2
29    27    20    1
30    28    27    1
31    29    27    1
32    30    29    1
33    31    29    1
34    32    27    1
35    32    29    1
36    33    32    1
37    34    32    1
@<TRIPOS>SUBSTRUCTURE
1   LIG    1    
 
########## Name        : 1VRT.lig
########## Description : AM1BCC_CHARGES =  -0.0002 ORIGINAL_CHARGES =  -0.0000

@<TRIPOS>MOLECULE
1VRT.lig
34    37    1     0     0    
SMALL
USER_CHARGES
@<TRIPOS>ATOM
1     N1       4.0540  -36.9310   22.2210 N.ar    1  LIG  -0.6650  -0.6200 
2     C1       4.9660  -36.2380   22.9390 C.ar    1  LIG   0.3947   0.1600 
3     H1       6.0082  -36.2811   22.6707 H       1  LIG   0.0281   0.1500 
4     C2       4.6240  -35.4500   24.0360 C.ar    1  LIG  -0.2334  -0.1500 
5     H2       5.3884  -34.9151   24.5740 H       1  LIG   0.1480   0.1500 
6     C3       3.3050  -35.3690   24.4150 C.ar    1  LIG  -0.0698  -0.1435 
7     C4       2.3460  -36.0770   23.6860 C.ar    1  LIG  -0.0398   0.1170 
8     N2       0.9890  -36.0280   24.1030 N.am    1  LIG  -0.4596  -0.5470 
9     H3       0.7643  -35.9928   25.0860 H       1  LIG   0.3311   0.3700 
10    C5      -0.1450  -36.0180   23.4080 C.2     1  LIG   0.7361   0.5438 
11    C6      -0.1190  -36.0770   21.8860 C.ar    1  LIG  -0.2550   0.0862 
12    C7      -1.1230  -35.3990   21.1890 C.ar    1  LIG  -0.0321  -0.1500 
13    H4      -1.7552  -34.6955   21.7041 H       1  LIG   0.1623   0.1500 
14    C8      -1.2960  -35.6300   19.8690 C.ar    1  LIG  -0.2723  -0.1500 
15    H5      -2.0662  -35.1073   19.3273 H       1  LIG   0.1522   0.1500 
16    C9      -0.4670  -36.5450   19.2400 C.ar    1  LIG   0.4373   0.1600 
17    H6      -0.5947  -36.7554   18.1915 H       1  LIG   0.0280   0.1500 
18    N3       0.5220  -37.2120   19.8740 N.ar    1  LIG  -0.6893  -0.6200 
19    C10      0.7040  -36.9790   21.1800 C.ar    1  LIG   0.6480   0.4100 
20    N4       1.7670  -37.6730   21.8260 N.pl3   1  LIG  -0.6924  -0.3690 
21    C11      2.7540  -36.8570   22.5840 C.ar    1  LIG   0.5805   0.4100 
22    C12      2.9040  -34.5090   25.6010 C.3     1  LIG  -0.0620   0.1435 
23    H7       2.2235  -33.7630   25.2820 H       1  LIG   0.0570   0.0000 
24    H8       2.4436  -35.1154   26.3371 H       1  LIG   0.0495   0.0000 
25    H9       3.7654  -34.0491   26.0108 H       1  LIG   0.0519   0.0000 
26    O1      -1.2400  -35.9060   23.9770 O.2     1  LIG  -0.6361  -0.5700 
27    C13      2.3440  -38.7570   21.0360 C.3     1  LIG   0.1354   0.0690 
28    H10      3.1238  -38.3754   20.4296 H       1  LIG   0.0981   0.1000 
29    C14      2.9380  -39.8900   21.8010 C.3     1  LIG  -0.1181  -0.2000 
30    H11      3.8890  -40.1268   21.3997 H       1  LIG   0.0732   0.1000 
31    H12      3.0430  -39.6129   22.8177 H       1  LIG   0.0789   0.1000 
32    C15      1.6390  -40.0610   21.0880 C.3     1  LIG  -0.1196  -0.2000 
33    H13      0.6832  -39.9283   21.5242 H       1  LIG   0.0807   0.1000 
34    H14      1.5292  -40.4423   20.1061 H       1  LIG   0.0733   0.1000 
@<TRIPOS>BOND
1     2     1     ar
2     3     2     1
3     4     2     ar
4     5     4     1
5     6     4     ar
6     7     6     ar
7     8     7     1
8     9     8     1
9     10    8     1
10    11    10    1
11    12    11    ar
12    13    12    1
13    14    12    ar
14    15    14    1
15    16    14    ar
16    17    16    1
17    18    16    ar
18    19    11    ar
19    19    18    ar
20    20    19    1
21    21    1     ar
22    21    7     ar
23    21    20    1
24    22    6     1
25    23    22    1
26    24    22    1
27    25    22    1
28    26    10    2
29    27    20    1
30    28    27    1
31    29    27    1
32    30    29    1
33    31    29    1
34    32    27    1
35    32    29    1
36    33    32    1
37    34    32    1
@<TRIPOS>SUBSTRUCTURE
1   LIG    1    
 
########## Name        : 1VRT.lig
########## Description : AM1BCC_CHARGES =  -0.0002 ORIGINAL_CHARGES =  -0.0000

@<TRIPOS>MOLECULE
1VRT.lig
34    37    1     0     0    
SMALL
USER_CHARGES
@<TRIPOS>ATOM
1     N1       4.0540  -36.9310   22.2210 N.ar    1  LIG  -0.6650  -0.6200 
2     C1       4.9660  -36.2380   22.9390 C.ar    1  LIG   0.3947   0.1600 
3     H1       6.0082  -36.2811   22.6707 H       1  LIG   0.0281   0.1500 
4     C2       4.6240  -35.4500   24.0360 C.ar    1  LIG  -0.2334  -0.1500 
5     H2       5.3884  -34.9151   24.5740 H       1  LIG   0.1480   0.1500 
6     C3       3.3050  -35.3690   24.4150 C.ar    1  LIG  -0.0698  -0.1435 
7     C4       2.3460  -36.0770   23.6860 C.ar    1  LIG  -0.0398   0.1170 
8     N2       0.9890  -36.0280   24.1030 N.am    1  LIG  -0.4596  -0.5470 
9     H3       0.7643  -35.9928   25.0860 H       1  LIG   0.3311   0.3700 
10    C5      -0.1450  -36.0180   23.4080 C.2     1  LIG   0.7361   0.5438 
11    C6      -0.1190  -36.0770   21.8860 C.ar    1  LIG  -0.2550   0.0862 
12    C7      -1.1230  -35.3990   21.1890 C.ar    1  LIG  -0.0321  -0.1500 
13    H4      -1.7552  -34.6955   21.7041 H       1  LIG   0.1623   0.1500 
14    C8      -1.2960  -35.6300   19.8690 C.ar    1  LIG  -0.2723  -0.1500 
15    H5      -2.0662  -35.1073   19.3273 H       1  LIG   0.1522   0.1500 
16    C9      -0.4670  -36.5450   19.2400 C.ar    1  LIG   0.4373   0.1600 
17    H6      -0.5947  -36.7554   18.1915 H       1  LIG   0.0280   0.1500 
18    N3       0.5220  -37.2120   19.8740 N.ar    1  LIG  -0.6893  -0.6200 
19    C10      0.7040  -36.9790   21.1800 C.ar    1  LIG   0.6480   0.4100 
20    N4       1.7670  -37.6730   21.8260 N.pl3   1  LIG  -0.6924  -0.3690 
21    C11      2.7540  -36.8570   22.5840 C.ar    1  LIG   0.5805   0.4100 
22    C12      2.9040  -34.5090   25.6010 C.3     1  LIG  -0.0620   0.1435 
23    H7       2.2235  -33.7630   25.2820 H       1  LIG   0.0570   0.0000 
24    H8       2.4436  -35.1154   26.3371 H       1  LIG   0.0495   0.0000 
25    H9       3.7654  -34.0491   26.0108 H       1  LIG   0.0519   0.0000 
26    O1      -1.2400  -35.9060   23.9770 O.2     1  LIG  -0.6361  -0.5700 
27    C13      2.3440  -38.7570   21.0360 C.3     1  LIG   0.1354   0.0690 
28    H10      3.1238  -38.3754   20.4296 H       1  LIG   0.0981   0.1000 
29    C14      2.9380  -39.8900   21.8010 C.3     1  LIG  -0.1181  -0.2000 
30    H11      3.8890  -40.1268   21.3997 H       1  LIG   0.0732   0.1000 
31    H12      3.0430  -39.6129   22.8177 H       1  LIG   0.0789   0.1000 
32    C15      1.6390  -40.0610   21.0880 C.3     1  LIG  -0.1196  -0.2000 
33    H13      0.6832  -39.9283   21.5242 H       1  LIG   0.0807   0.1000 
34    H14      1.5292  -40.4423   20.1061 H       1  LIG   0.0733   0.1000 
@<TRIPOS>BOND
1     2     1     ar
2     3     2     1
3     4     2     ar
4     5     4     1
5     6     4     ar
6     7     6     ar
7     8     7     1
8     9     8     1
9     10    8     1
10    11    10    1
11    12    11    ar
12    13    12    1
13    14    12    ar
14    15    14    1
15    16    14    ar
16    17    16    1
17    18    16    ar
18    19    11    ar
19    19    18    ar
20    20    19    1
21    21    1     ar
22    21    7     ar
23    21    20    1
24    22    6     1
25    23    22    1
26    24    22    1
27    25    22    1
28    26    10    2
29    27    20    1
30    28    27    1
31    29    27    1
32    30    29    1
33    31    29    1
34    32    27    1
35    32    29    1
36    33    32    1
37    34    32    1
@<TRIPOS>SUBSTRUCTURE
1   LIG    1    
 
########## Name        : 1VRT.lig
########## Description : AM1BCC_CHARGES =  -0.0002 ORIGINAL_CHARGES =  -0.0000

@<TRIPOS>MOLECULE
1VRT.lig
34    37    1     0     0    
SMALL
USER_CHARGES
@<TRIPOS>ATOM
1     N1       4.0540  -36.9310   22.2210 N.ar    1  LIG  -0.6650  -0.6200 
2     C1       4.9660  -36.2380   22.9390 C.ar    1  LIG   0.3947   0.1600 
3     H1       6.0082  -36.2811   22.6707 H       1  LIG   0.0281   0.1500 
4     C2       4.6240  -35.4500   24.0360 C.ar    1  LIG  -0.2334  -0.1500 
5     H2       5.3884  -34.9151   24.5740 H       1  LIG   0.1480   0.1500 
6     C3       3.3050  -35.3690   24.4150 C.ar    1  LIG  -0.0698  -0.1435 
7     C4       2.3460  -36.0770   23.6860 C.ar    1  LIG  -0.0398   0.1170 
8     N2       0.9890  -36.0280   24.1030 N.am    1  LIG  -0.4596  -0.5470 
9     H3       0.7643  -35.9928   25.0860 H       1  LIG   0.3311   0.3700 
10    C5      -0.1450  -36.0180   23.4080 C.2     1  LIG   0.7361   0.5438 
11    C6      -0.1190  -36.0770   21.8860 C.ar    1  LIG  -0.2550   0.0862 
12    C7      -1.1230  -35.3990   21.1890 C.ar    1  LIG  -0.0321  -0.1500 
13    H4      -1.7552  -34.6955   21.7041 H       1  LIG   0.1623   0.1500 
14    C8      -1.2960  -35.6300   19.8690 C.ar    1  LIG  -0.2723  -0.1500 
15    H5      -2.0662  -35.1073   19.3273 H       1  LIG   0.1522   0.1500 
16    C9      -0.4670  -36.5450   19.2400 C.ar    1  LIG   0.4373   0.1600 
17    H6      -0.5947  -36.7554   18.1915 H       1  LIG   0.0280   0.1500 
18    N3       0.5220  -37.2120   19.8740 N.ar    1  LIG  -0.6893  -0.6200 
19    C10      0.7040  -36.9790   21.1800 C.ar    1  LIG   0.6480   0.4100 
20    N4       1.7670  -37.6730   21.8260 N.pl3   1  LIG  -0.6924  -0.3690 
21    C11      2.7540  -36.8570   22.5840 C.ar    1  LIG   0.5805   0.4100 
22    C12      2.9040  -34.5090   25.6010 C.3     1  LIG  -0.0620   0.1435 
23    H7       2.2235  -33.7630   25.2820 H       1  LIG   0.0570   0.0000 
24    H8       2.4436  -35.1154   26.3371 H       1  LIG   0.0495   0.0000 
25    H9       3.7654  -34.0491   26.0108 H       1  LIG   0.0519   0.0000 
26    O1      -1.2400  -35.9060   23.9770 O.2     1  LIG  -0.6361  -0.5700 
27    C13      2.3440  -38.7570   21.0360 C.3     1  LIG   0.1354   0.0690 
28    H10      3.1238  -38.3754   20.4296 H       1  LIG   0.0981   0.1000 
29    C14      2.9380  -39.8900   21.8010 C.3     1  LIG  -0.1181  -0.2000 
30    H11      3.8890  -40.1268   21.3997 H       1  LIG   0.0732   0.1000 
31    H12      3.0430  -39.6129   22.8177 H       1  LIG   0.0789   0.1000 
32    C15      1.6390  -40.0610   21.0880 C.3     1  LIG  -0.1196  -0.2000 
33    H13      0.6832  -39.9283   21.5242 H       1  LIG   0.0807   0.1000 
34    H14      1.5292  -40.4423   20.1061 H       1  LIG   0.0733   0.1000 
@<TRIPOS>BOND
1     2     1     ar
2     3     2     1
3     4     2     ar
4     5     4     1
5     6     4     ar
6     7     6     ar
7     8     7     1
8     9     8     1
9     10    8     1
10    11    10    1
11    12    11    ar
12    13    12    1
13    14    12    ar
14    15    14    1
15    16    14    ar
16    17    16    1
17    18    16    ar
18    19    11    ar
19    19    18    ar
20    20    19    1
21    21    1     ar
22    21    7     ar
23    21    20    1
24    22    6     1
25    23    22    1
26    24    22    1
27    25    22    1
28    26    10    2
29    27    20    1
30    28    27    1
31    29    27    1
32    30    29    1
33    31    29    1
34    32    27    1
35    32    29    1
36    33    32    1
37    34    32    1
@<TRIPOS>SUBSTRUCTURE
1   LIG    1    
 
########## Name        : 1VRT.lig
########## Description : AM1BCC_CHARGES =  -0.0002 ORIGINAL_CHARGES =  -0.0000

@<TRIPOS>MOLECULE
1VRT.lig
34    37    1     0     0    
SMALL
USER_CHARGES
@<TRIPOS>ATOM
1     N1       4.0540  -36.9310   22.2210 N.ar    1  LIG  -0.6650  -0.6200 
2     C1       4.9660  -36.2380   22.9390 C.ar    1  LIG   0.3947   0.1600 
3     H1       6.0082  -36.2811   22.6707 H       1  LIG   0.0281   0.1500 
4     C2       4.6240  -35.4500   24.0360 C.ar    1  LIG  -0.2334  -0.1500 
5     H2       5.3884  -34.9151   24.5740 H       1  LIG   0.1480   0.1500 
6     C3       3.3050  -35.3690   24.4150 C.ar    1  LIG  -0.0698  -0.1435 
7     C4       2.3460  -36.0770   23.6860 C.ar    1  LIG  -0.0398   0.1170 
8     N2       0.9890  -36.0280   24.1030 N.am    1  LIG  -0.4596  -0.5470 
9     H3       0.7643  -35.9928   25.0860 H       1  LIG   0.3311   0.3700 
10    C5      -0.1450  -36.0180   23.4080 C.2     1  LIG   0.7361   0.5438 
11    C6      -0.1190  -36.0770   21.8860 C.ar    1  LIG  -0.2550   0.0862 
12    C7      -1.1230  -35.3990   21.1890 C.ar    1  LIG  -0.0321  -0.1500 
13    H4      -1.7552  -34.6955   21.7041 H       1  LIG   0.1623   0.1500 
14    C8      -1.2960  -35.6300   19.8690 C.ar    1  LIG  -0.2723  -0.1500 
15    H5      -2.0662  -35.1073   19.3273 H       1  LIG   0.1522   0.1500 
16    C9      -0.4670  -36.5450   19.2400 C.ar    1  LIG   0.4373   0.1600 
17    H6      -0.5947  -36.7554   18.1915 H       1  LIG   0.0280   0.1500 
18    N3       0.5220  -37.2120   19.8740 N.ar    1  LIG  -0.6893  -0.6200 
19    C10      0.7040  -36.9790   21.1800 C.ar    1  LIG   0.6480   0.4100 
20    N4       1.7670  -37.6730   21.8260 N.pl3   1  LIG  -0.6924  -0.3690 
21    C11      2.7540  -36.8570   22.5840 C.ar    1  LIG   0.5805   0.4100 
22    C12      2.9040  -34.5090   25.6010 C.3     1  LIG  -0.0620   0.1435 
23    H7       2.2235  -33.7630   25.2820 H       1  LIG   0.0570   0.0000 
24    H8       2.4436  -35.1154   26.3371 H       1  LIG   0.0495   0.0000 
25    H9       3.7654  -34.0491   26.0108 H       1  LIG   0.0519   0.0000 
26    O1      -1.2400  -35.9060   23.9770 O.2     1  LIG  -0.6361  -0.5700 
27    C13      2.3440  -38.7570   21.0360 C.3     1  LIG   0.1354   0.0690 
28    H10      3.1238  -38.3754   20.4296 H       1  LIG   0.0981   0.1000 
29    C14      2.9380  -39.8900   21.8010 C.3     1  LIG  -0.1181  -0.2000 
30    H11      3.8890  -40.1268   21.3997 H       1  LIG   0.0732   0.1000 
31    H12      3.0430  -39.6129   22.8177 H       1  LIG   0.0789   0.1000 
32    C15      1.6390  -40.0610   21.0880 C.3     1  LIG  -0.1196  -0.2000 
33    H13      0.6832  -39.9283   21.5242 H       1  LIG   0.0807   0.1000 
34    H14      1.5292  -40.4423   20.1061 H       1  LIG   0.0733   0.1000 
@<TRIPOS>BOND
1     2     1     ar
2     3     2     1
3     4     2     ar
4     5     4     1
5     6     4     ar
6     7     6     ar
7     8     7     1
8     9     8     1
9     10    8     1
10    11    10    1
11    12    11    ar
12    13    12    1
13    14    12    ar
14    15    14    1
15    16    14    ar
16    17    16    1
17    18    16    ar
18    19    11    ar
19    19    18    ar
20    20    19    1
21    21    1     ar
22    21    7     ar
23    21    20    1
24    22    6     1
25    23    22    1
26    24    22    1
27    25    22    1
28    26    10    2
29    27    20    1
30    28    27    1
31    29    27    1
32    30    29    1
33    31    29    1
34    32    27    1
35    32    29    1
36    33    32    1
37    34    32    1
@<TRIPOS>SUBSTRUCTURE
1   LIG    1    
 
########## Name        : 1VRT.lig
########## Description : AM1BCC_CHARGES =  -0.0002 ORIGINAL_CHARGES =  -0.0000

@<TRIPOS>MOLECULE
1VRT.lig
34    37    1     0     0    
SMALL
USER_CHARGES
@<TRIPOS>ATOM
1     N1       4.0540  -36.9310   22.2210 N.ar    1  LIG  -0.6650  -0.6200 
2     C1       4.9660  -36.2380   22.9390 C.ar    1  LIG   0.3947   0.1600 
3     H1       6.0082  -36.2811   22.6707 H       1  LIG   0.0281   0.1500 
4     C2       4.6240  -35.4500   24.0360 C.ar    1  LIG  -0.2334  -0.1500 
5     H2       5.3884  -34.9151   24.5740 H       1  LIG   0.1480   0.1500 
6     C3       3.3050  -35.3690   24.4150 C.ar    1  LIG  -0.0698  -0.1435 
7     C4       2.3460  -36.0770   23.6860 C.ar    1  LIG  -0.0398   0.1170 
8     N2       0.9890  -36.0280   24.1030 N.am    1  LIG  -0.4596  -0.5470 
9     H3       0.7643  -35.9928   25.0860 H       1  LIG   0.3311   0.3700 
10    C5      -0.1450  -36.0180   23.4080 C.2     1  LIG   0.7361   0.5438 
11    C6      -0.1190  -36.0770   21.8860 C.ar    1  LIG  -0.2550   0.0862 
12    C7      -1.1230  -35.3990   21.1890 C.ar    1  LIG  -0.0321  -0.1500 
13    H4      -1.7552  -34.6955   21.7041 H       1  LIG   0.1623   0.1500 
14    C8      -1.2960  -35.6300   19.8690 C.ar    1  LIG  -0.2723  -0.1500 
15    H5      -2.0662  -35.1073   19.3273 H       1  LIG   0.1522   0.1500 
16    C9      -0.4670  -36.5450   19.2400 C.ar    1  LIG   0.4373   0.1600 
17    H6      -0.5947  -36.7554   18.1915 H       1  LIG   0.0280   0.1500 
18    N3       0.5220  -37.2120   19.8740 N.ar    1  LIG  -0.6893  -0.6200 
19    C10      0.7040  -36.9790   21.1800 C.ar    1  LIG   0.6480   0.4100 
20    N4       1.7670  -37.6730   21.8260 N.pl3   1  LIG  -0.6924  -0.3690 
21    C11      2.7540  -36.8570   22.5840 C.ar    1  LIG   0.5805   0.4100 
22    C12      2.9040  -34.5090   25.6010 C.3     1  LIG  -0.0620   0.1435 
23    H7       2.2235  -33.7630   25.2820 H       1  LIG   0.0570   0.0000 
24    H8       2.4436  -35.1154   26.3371 H       1  LIG   0.0495   0.0000 
25    H9       3.7654  -34.0491   26.0108 H       1  LIG   0.0519   0.0000 
26    O1      -1.2400  -35.9060   23.9770 O.2     1  LIG  -0.6361  -0.5700 
27    C13      2.3440  -38.7570   21.0360 C.3     1  LIG   0.1354   0.0690 
28    H10      3.1238  -38.3754   20.4296 H       1  LIG   0.0981   0.1000 
29    C14      2.9380  -39.8900   21.8010 C.3     1  LIG  -0.1181  -0.2000 
30    H11      3.8890  -40.1268   21.3997 H       1  LIG   0.0732   0.1000 
31    H12      3.0430  -39.6129   22.8177 H       1  LIG   0.0789   0.1000 
32    C15      1.6390  -40.0610   21.0880 C.3     1  LIG  -0.1196  -0.2000 
33    H13      0.6832  -39.9283   21.5242 H       1  LIG   0.0807   0.1000 
34    H14      1.5292  -40.4423   20.1061 H       1  LIG   0.0733   0.1000 
@<TRIPOS>BOND
1     2     1     ar
2     3     2     1
3     4     2     ar
4     5     4     1
5     6     4     ar
6     7     6     ar
7     8     7     1
8     9     8     1
9     10    8     1
10    11    10    1
11    12    11    ar
12    13    12    1
13    14    12    ar
14    15    14    1
15    16    14    ar
16    17    16    1
17    18    16    ar
18    19    11    ar
19    19    18    ar
20    20    19    1
21    21    1     ar
22    21    7     ar
23    21    20    1
24    22    6     1
25    23    22    1
26    24    22    1
27    25    22    1
28    26    10    2
29    27    20    1
30    28    27    1
31    29    27    1
32    30    29    1
33    31    29    1
34    32    27    1
35    32    29    1
36    33    32    1
37    34    32    1
@<TRIPOS>SUBSTRUCTURE
1   LIG    1    
 
########## Name        : 1VRT.lig
########## Description : AM1BCC_CHARGES =  -0.0002 ORIGINAL_CHARGES =  -0.0000

@<TRIPOS>MOLECULE
1VRT.lig
34    37    1     0     0    
SMALL
USER_CHARGES
@<TRIPOS>ATOM
1     N1       4.0540  -36.9310   22.2210 N.ar    1  LIG  -0.6650  -0.6200 
2     C1       4.9660  -36.2380   22.9390 C.ar    1  LIG   0.3947   0.1600 
3     H1       6.0082  -36.2811   22.6707 H       1  LIG   0.0281   0.1500 
4     C2       4.6240  -35.4500   24.0360 C.ar    1  LIG  -0.2334  -0.1500 
5     H2       5.3884  -34.9151   24.5740 H       1  LIG   0.1480   0.1500 
6     C3       3.3050  -35.3690   24.4150 C.ar    1  LIG  -0.0698  -0.1435 
7     C4       2.3460  -36.0770   23.6860 C.ar    1  LIG  -0.0398   0.1170 
8     N2       0.9890  -36.0280   24.1030 N.am    1  LIG  -0.4596  -0.5470 
9     H3       0.7643  -35.9928   25.0860 H       1  LIG   0.3311   0.3700 
10    C5      -0.1450  -36.0180   23.4080 C.2     1  LIG   0.7361   0.5438 
11    C6      -0.1190  -36.0770   21.8860 C.ar    1  LIG  -0.2550   0.0862 
12    C7      -1.1230  -35.3990   21.1890 C.ar    1  LIG  -0.0321  -0.1500 
13    H4      -1.7552  -34.6955   21.7041 H       1  LIG   0.1623   0.1500 
14    C8      -1.2960  -35.6300   19.8690 C.ar    1  LIG  -0.2723  -0.1500 
15    H5      -2.0662  -35.1073   19.3273 H       1  LIG   0.1522   0.1500 
16    C9      -0.4670  -36.5450   19.2400 C.ar    1  LIG   0.4373   0.1600 
17    H6      -0.5947  -36.7554   18.1915 H       1  LIG   0.0280   0.1500 
18    N3       0.5220  -37.2120   19.8740 N.ar    1  LIG  -0.6893  -0.6200 
19    C10      0.7040  -36.9790   21.1800 C.ar    1  LIG   0.6480   0.4100 
20    N4       1.7670  -37.6730   21.8260 N.pl3   1  LIG  -0.6924  -0.3690 
21    C11      2.7540  -36.8570   22.5840 C.ar    1  LIG   0.5805   0.4100 
22    C12      2.9040  -34.5090   25.6010 C.3     1  LIG  -0.0620   0.1435 
23    H7       2.2235  -33.7630   25.2820 H       1  LIG   0.0570   0.0000 
24    H8       2.4436  -35.1154   26.3371 H       1  LIG   0.0495   0.0000 
25    H9       3.7654  -34.0491   26.0108 H       1  LIG   0.0519   0.0000 
26    O1      -1.2400  -35.9060   23.9770 O.2     1  LIG  -0.6361  -0.5700 
27    C13      2.3440  -38.7570   21.0360 C.3     1  LIG   0.1354   0.0690 
28    H10      3.1238  -38.3754   20.4296 H       1  LIG   0.0981   0.1000 
29    C14      2.9380  -39.8900   21.8010 C.3     1  LIG  -0.1181  -0.2000 
30    H11      3.8890  -40.1268   21.3997 H       1  LIG   0.0732   0.1000 
31    H12      3.0430  -39.6129   22.8177 H       1  LIG   0.0789   0.1000 
32    C15      1.6390  -40.0610   21.0880 C.3     1  LIG  -0.1196  -0.2000 
33    H13      0.6832  -39.9283   21.5242 H       1  LIG   0.0807   0.1000 
34    H14      1.5292  -40.4423   20.1061 H       1  LIG   0.0733   0.1000 
@<TRIPOS>BOND
1     2     1     ar
2     3     2     1
3     4     2     ar
4     5     4     1
5     6     4     ar
6     7     6     ar
7     8     7     1
8     9     8     1
9     10    8     1
10    11    10    1
11    12    11    ar
12    13    12    1
13    14    12    ar
14    15    14    1
15    16    14    ar
16    17    16    1
17    18    16    ar
18    19    11    ar
19    19    18    ar
20    20    19    1
21    21    1     ar
22    21    7     ar
23    21    20    1
24    22    6     1
25    23    22    1
26    24    22    1
27    25    22    1
28    26    10    2
29    27    20    1
30    28    27    1
31    29    27    1
32    30    29    1
33    31    29    1
34    32    27    1
35    32    29    1
36    33    32    1
37    34    32    1
@<TRIPOS>SUBSTRUCTURE
1   LIG    1    
 
########## Name        : 1VRT.lig
########## Description : AM1BCC_CHARGES =  -0.0002 ORIGINAL_CHARGES =  -0.0000

@<TRIPOS>MOLECULE
1VRT.lig
34    37    1     0     0    
SMALL
USER_CHARGES
@<TRIPOS>ATOM
1     N1       4.0540  -36.9310   22.2210 N.ar    1  LIG  -0.6650  -0.6200 
2     C1       4.9660  -36.2380   22.9390 C.ar    1  LIG   0.3947   0.1600 
3     H1       6.0082  -36.2811   22.6707 H       1  LIG   0.0281   0.1500 
4     C2       4.6240  -35.4500   24.0360 C.ar    1  LIG  -0.2334  -0.1500 
5     H2       5.3884  -34.9151   24.5740 H       1  LIG   0.1480   0.1500 
6     C3       3.3050  -35.3690   24.4150 C.ar    1  LIG  -0.0698  -0.1435 
7     C4       2.3460  -36.0770   23.6860 C.ar    1  LIG  -0.0398   0.1170 
8     N2       0.9890  -36.0280   24.1030 N.am    1  LIG  -0.4596  -0.5470 
9     H3       0.7643  -35.9928   25.0860 H       1  LIG   0.3311   0.3700 
10    C5      -0.1450  -36.0180   23.4080 C.2     1  LIG   0.7361   0.5438 
11    C6      -0.1190  -36.0770   21.8860 C.ar    1  LIG  -0.2550   0.0862 
12    C7      -1.1230  -35.3990   21.1890 C.ar    1  LIG  -0.0321  -0.1500 
13    H4      -1.7552  -34.6955   21.7041 H       1  LIG   0.1623   0.1500 
14    C8      -1.2960  -35.6300   19.8690 C.ar    1  LIG  -0.2723  -0.1500 
15    H5      -2.0662  -35.1073   19.3273 H       1  LIG   0.1522   0.1500 
16    C9      -0.4670  -36.5450   19.2400 C.ar    1  LIG   0.4373   0.1600 
17    H6      -0.5947  -36.7554   18.1915 H       1  LIG   0.0280   0.1500 
18    N3       0.5220  -37.2120   19.8740 N.ar    1  LIG  -0.6893  -0.6200 
19    C10      0.7040  -36.9790   21.1800 C.ar    1  LIG   0.6480   0.4100 
20    N4       1.7670  -37.6730   21.8260 N.pl3   1  LIG  -0.6924  -0.3690 
21    C11      2.7540  -36.8570   22.5840 C.ar    1  LIG   0.5805   0.4100 
22    C12      2.9040  -34.5090   25.6010 C.3     1  LIG  -0.0620   0.1435 
23    H7       2.2235  -33.7630   25.2820 H       1  LIG   0.0570   0.0000 
24    H8       2.4436  -35.1154   26.3371 H       1  LIG   0.0495   0.0000 
25    H9       3.7654  -34.0491   26.0108 H       1  LIG   0.0519   0.0000 
26    O1      -1.2400  -35.9060   23.9770 O.2     1  LIG  -0.6361  -0.5700 
27    C13      2.3440  -38.7570   21.0360 C.3     1  LIG   0.1354   0.0690 
28    H10      3.1238  -38.3754   20.4296 H       1  LIG   0.0981   0.1000 
29    C14      2.9380  -39.8900   21.8010 C.3     1  LIG  -0.1181  -0.2000 
30    H11      3.8890  -40.1268   21.3997 H       1  LIG   0.0732   0.1000 
31    H12      3.0430  -39.6129   22.8177 H       1  LIG   0.0789   0.1000 
32    C15      1.6390  -40.0610   21.0880 C.3     1  LIG  -0.1196  -0.2000 
33    H13      0.6832  -39.9283   21.5242 H       1  LIG   0.0807   0.1000 
34    H14      1.5292  -40.4423   20.1061 H       1  LIG   0.0733   0.1000 
@<TRIPOS>BOND
1     2     1     ar
2     3     2     1
3     4     2     ar
4     5     4     1
5     6     4     ar
6     7     6     ar
7     8     7     1
8     9     8     1
9     10    8     1
10    11    10    1
11    12    11    ar
12    13    12    1
13    14    12    ar
14    15    14    1
15    16    14    ar
16    17    16    1
17    18    16    ar
18    19    11    ar
19    19    18    ar
20    20    19    1
21    21    1     ar
22    21    7     ar
23    21    20    1
24    22    6     1
25    23    22    1
26    24    22    1
27    25    22    1
28    26    10    2
29    27    20    1
30    28    27    1
31    29    27    1
32    30    29    1
33    31    29    1
34    32    27    1
35    32    29    1
36    33    32    1
37    34    32    1
@<TRIPOS>SUBSTRUCTURE
1   LIG    1    
 
########## Name        : 1VRT.lig
########## Description : AM1BCC_CHARGES =  -0.0002 ORIGINAL_CHARGES =  -0.0000

@<TRIPOS>MOLECULE
1VRT.lig
34    37    1     0     0    
SMALL
USER_CHARGES
@<TRIPOS>ATOM
1     N1       4.0540  -36.9310   22.2210 N.ar    1  LIG  -0.6650  -0.6200 
2     C1       4.9660  -36.2380   22.9390 C.ar    1  LIG   0.3947   0.1600 
3     H1       6.0082  -36.2811   22.6707 H       1  LIG   0.0281   0.1500 
4     C2       4.6240  -35.4500   24.0360 C.ar    1  LIG  -0.2334  -0.1500 
5     H2       5.3884  -34.9151   24.5740 H       1  LIG   0.1480   0.1500 
6     C3       3.3050  -35.3690   24.4150 C.ar    1  LIG  -0.0698  -0.1435 
7     C4       2.3460  -36.0770   23.6860 C.ar    1  LIG  -0.0398   0.1170 
8     N2       0.9890  -36.0280   24.1030 N.am    1  LIG  -0.4596  -0.5470 
9     H3       0.7643  -35.9928   25.0860 H       1  LIG   0.3311   0.3700 
10    C5      -0.1450  -36.0180   23.4080 C.2     1  LIG   0.7361   0.5438 
11    C6      -0.1190  -36.0770   21.8860 C.ar    1  LIG  -0.2550   0.0862 
12    C7      -1.1230  -35.3990   21.1890 C.ar    1  LIG  -0.0321  -0.1500 
13    H4      -1.7552  -34.6955   21.7041 H       1  LIG   0.1623   0.1500 
14    C8      -1.2960  -35.6300   19.8690 C.ar    1  LIG  -0.2723  -0.1500 
15    H5      -2.0662  -35.1073   19.3273 H       1  LIG   0.1522   0.1500 
16    C9      -0.4670  -36.5450   19.2400 C.ar    1  LIG   0.4373   0.1600 
17    H6      -0.5947  -36.7554   18.1915 H       1  LIG   0.0280   0.1500 
18    N3       0.5220  -37.2120   19.8740 N.ar    1  LIG  -0.6893  -0.6200 
19    C10      0.7040  -36.9790   21.1800 C.ar    1  LIG   0.6480   0.4100 
20    N4       1.7670  -37.6730   21.8260 N.pl3   1  LIG  -0.6924  -0.3690 
21    C11      2.7540  -36.8570   22.5840 C.ar    1  LIG   0.5805   0.4100 
22    C12      2.9040  -34.5090   25.6010 C.3     1  LIG  -0.0620   0.1435 
23    H7       2.2235  -33.7630   25.2820 H       1  LIG   0.0570   0.0000 
24    H8       2.4436  -35.1154   26.3371 H       1  LIG   0.0495   0.0000 
25    H9       3.7654  -34.0491   26.0108 H       1  LIG   0.0519   0.0000 
26    O1      -1.2400  -35.9060   23.9770 O.2     1  LIG  -0.6361  -0.5700 
27    C13      2.3440  -38.7570   21.0360 C.3     1  LIG   0.1354   0.0690 
28    H10      3.1238  -38.3754   20.4296 H       1  LIG   0.0981   0.1000 
29    C14      2.9380  -39.8900   21.8010 C.3     1  LIG  -0.1181  -0.2000 
30    H11      3.8890  -40.1268   21.3997 H       1  LIG   0.0732   0.1000 
31    H12      3.0430  -39.6129   22.8177 H       1  LIG   0.0789   0.1000 
32    C15      1.6390  -40.0610   21.0880 C.3     1  LIG  -0.1196  -0.2000 
33    H13      0.6832  -39.9283   21.5242 H       1  LIG   0.0807   0.1000 
34    H14      1.5292  -40.4423   20.1061 H       1  LIG   0.0733   0.1000 
@<TRIPOS>BOND
1     2     1     ar
2     3     2     1
3     4     2     ar
4     5     4     1
5     6     4     ar
6     7     6     ar
7     8     7     1
8     9     8     1
9     10    8     1
10    11    10    1
11    12    11    ar
12    13    12    1
13    14    12    ar
14    15    14    1
15    16    14    ar
16    17    16    1
17    18    16    ar
18    19    11    ar
19    19    18    ar
20    20    19    1
21    21    1     ar
22    21    7     ar
23    21    20    1
24    22    6     1
25    23    22    1
26    24    22    1
27    25    22    1
28    26    10    2
29    27    20    1
30    28    27    1
31    29    27    1
32    30    29    1
33    31    29    1
34    32    27    1
35    32    29    1
36    33    32    1
37    34    32    1
@<TRIPOS>SUBSTRUCTURE
1   LIG    1    
 
########## Name        : 1VRT.lig
########## Description : AM1BCC_CHARGES =  -0.0002 ORIGINAL_CHARGES =  -0.0000

@<TRIPOS>MOLECULE
1VRT.lig
34    37    1     0     0    
SMALL
USER_CHARGES
@<TRIPOS>ATOM
1     N1       4.0540  -36.9310   22.2210 N.ar    1  LIG  -0.6650  -0.6200 
2     C1       4.9660  -36.2380   22.9390 C.ar    1  LIG   0.3947   0.1600 
3     H1       6.0082  -36.2811   22.6707 H       1  LIG   0.0281   0.1500 
4     C2       4.6240  -35.4500   24.0360 C.ar    1  LIG  -0.2334  -0.1500 
5     H2       5.3884  -34.9151   24.5740 H       1  LIG   0.1480   0.1500 
6     C3       3.3050  -35.3690   24.4150 C.ar    1  LIG  -0.0698  -0.1435 
7     C4       2.3460  -36.0770   23.6860 C.ar    1  LIG  -0.0398   0.1170 
8     N2       0.9890  -36.0280   24.1030 N.am    1  LIG  -0.4596  -0.5470 
9     H3       0.7643  -35.9928   25.0860 H       1  LIG   0.3311   0.3700 
10    C5      -0.1450  -36.0180   23.4080 C.2     1  LIG   0.7361   0.5438 
11    C6      -0.1190  -36.0770   21.8860 C.ar    1  LIG  -0.2550   0.0862 
12    C7      -1.1230  -35.3990   21.1890 C.ar    1  LIG  -0.0321  -0.1500 
13    H4      -1.7552  -34.6955   21.7041 H       1  LIG   0.1623   0.1500 
14    C8      -1.2960  -35.6300   19.8690 C.ar    1  LIG  -0.2723  -0.1500 
15    H5      -2.0662  -35.1073   19.3273 H       1  LIG   0.1522   0.1500 
16    C9      -0.4670  -36.5450   19.2400 C.ar    1  LIG   0.4373   0.1600 
17    H6      -0.5947  -36.7554   18.1915 H       1  LIG   0.0280   0.1500 
18    N3       0.5220  -37.2120   19.8740 N.ar    1  LIG  -0.6893  -0.6200 
19    C10      0.7040  -36.9790   21.1800 C.ar    1  LIG   0.6480   0.4100 
20    N4       1.7670  -37.6730   21.8260 N.pl3   1  LIG  -0.6924  -0.3690 
21    C11      2.7540  -36.8570   22.5840 C.ar    1  LIG   0.5805   0.4100 
22    C12      2.9040  -34.5090   25.6010 C.3     1  LIG  -0.0620   0.1435 
23    H7       2.2235  -33.7630   25.2820 H       1  LIG   0.0570   0.0000 
24    H8       2.4436  -35.1154   26.3371 H       1  LIG   0.0495   0.0000 
25    H9       3.7654  -34.0491   26.0108 H       1  LIG   0.0519   0.0000 
26    O1      -1.2400  -35.9060   23.9770 O.2     1  LIG  -0.6361  -0.5700 
27    C13      2.3440  -38.7570   21.0360 C.3     1  LIG   0.1354   0.0690 
28    H10      3.1238  -38.3754   20.4296 H       1  LIG   0.0981   0.1000 
29    C14      2.9380  -39.8900   21.8010 C.3     1  LIG  -0.1181  -0.2000 
30    H11      3.8890  -40.1268   21.3997 H       1  LIG   0.0732   0.1000 
31    H12      3.0430  -39.6129   22.8177 H       1  LIG   0.0789   0.1000 
32    C15      1.6390  -40.0610   21.0880 C.3     1  LIG  -0.1196  -0.2000 
33    H13      0.6832  -39.9283   21.5242 H       1  LIG   0.0807   0.1000 
34    H14      1.5292  -40.4423   20.1061 H       1  LIG   0.0733   0.1000 
@<TRIPOS>BOND
1     2     1     ar
2     3     2     1
3     4     2     ar
4     5     4     1
5     6     4     ar
6     7     6     ar
7     8     7     1
8     9     8     1
9     10    8     1
10    11    10    1
11    12    11    ar
12    13    12    1
13    14    12    ar
14    15    14    1
15    16    14    ar
16    17    16    1
17    18    16    ar
18    19    11    ar
19    19    18    ar
20    20    19    1
21    21    1     ar
22    21    7     ar
23    21    20    1
24    22    6     1
25    23    22    1
26    24    22    1
27    25    22    1
28    26    10    2
29    27    20    1
30    28    27    1
31    29    27    1
32    30    29    1
33    31    29    1
34    32    27    1
35    32    29    1
36    33    32    1
37    34    32    1
@<TRIPOS>SUBSTRUCTURE
1   LIG    1    
 
########## Name        : 1VRT.lig
########## Description : AM1BCC_CHARGES =  -0.0002 ORIGINAL_CHARGES =  -0.0000

@<TRIPOS>MOLECULE
1VRT.lig
34    37    1     0     0    
SMALL
USER_CHARGES
@<TRIPOS>ATOM
1     N1       4.0540  -36.9310   22.2210 N.ar    1  LIG  -0.6650  -0.6200 
2     C1       4.9660  -36.2380   22.9390 C.ar    1  LIG   0.3947   0.1600 
3     H1       6.0082  -36.2811   22.6707 H       1  LIG   0.0281   0.1500 
4     C2       4.6240  -35.4500   24.0360 C.ar    1  LIG  -0.2334  -0.1500 
5     H2       5.3884  -34.9151   24.5740 H       1  LIG   0.1480   0.1500 
6     C3       3.3050  -35.3690   24.4150 C.ar    1  LIG  -0.0698  -0.1435 
7     C4       2.3460  -36.0770   23.6860 C.ar    1  LIG  -0.0398   0.1170 
8     N2       0.9890  -36.0280   24.1030 N.am    1  LIG  -0.4596  -0.5470 
9     H3       0.7643  -35.9928   25.0860 H       1  LIG   0.3311   0.3700 
10    C5      -0.1450  -36.0180   23.4080 C.2     1  LIG   0.7361   0.5438 
11    C6      -0.1190  -36.0770   21.8860 C.ar    1  LIG  -0.2550   0.0862 
12    C7      -1.1230  -35.3990   21.1890 C.ar    1  LIG  -0.0321  -0.1500 
13    H4      -1.7552  -34.6955   21.7041 H       1  LIG   0.1623   0.1500 
14    C8      -1.2960  -35.6300   19.8690 C.ar    1  LIG  -0.2723  -0.1500 
15    H5      -2.0662  -35.1073   19.3273 H       1  LIG   0.1522   0.1500 
16    C9      -0.4670  -36.5450   19.2400 C.ar    1  LIG   0.4373   0.1600 
17    H6      -0.5947  -36.7554   18.1915 H       1  LIG   0.0280   0.1500 
18    N3       0.5220  -37.2120   19.8740 N.ar    1  LIG  -0.6893  -0.6200 
19    C10      0.7040  -36.9790   21.1800 C.ar    1  LIG   0.6480   0.4100 
20    N4       1.7670  -37.6730   21.8260 N.pl3   1  LIG  -0.6924  -0.3690 
21    C11      2.7540  -36.8570   22.5840 C.ar    1  LIG   0.5805   0.4100 
22    C12      2.9040  -34.5090   25.6010 C.3     1  LIG  -0.0620   0.1435 
23    H7       2.2235  -33.7630   25.2820 H       1  LIG   0.0570   0.0000 
24    H8       2.4436  -35.1154   26.3371 H       1  LIG   0.0495   0.0000 
25    H9       3.7654  -34.0491   26.0108 H       1  LIG   0.0519   0.0000 
26    O1      -1.2400  -35.9060   23.9770 O.2     1  LIG  -0.6361  -0.5700 
27    C13      2.3440  -38.7570   21.0360 C.3     1  LIG   0.1354   0.0690 
28    H10      3.1238  -38.3754   20.4296 H       1  LIG   0.0981   0.1000 
29    C14      2.9380  -39.8900   21.8010 C.3     1  LIG  -0.1181  -0.2000 
30    H11      3.8890  -40.1268   21.3997 H       1  LIG   0.0732   0.1000 
31    H12      3.0430  -39.6129   22.8177 H       1  LIG   0.0789   0.1000 
32    C15      1.6390  -40.0610   21.0880 C.3     1  LIG  -0.1196  -0.2000 
33    H13      0.6832  -39.9283   21.5242 H       1  LIG   0.0807   0.1000 
34    H14      1.5292  -40.4423   20.1061 H       1  LIG   0.0733   0.1000 
@<TRIPOS>BOND
1     2     1     ar
2     3     2     1
3     4     2     ar
4     5     4     1
5     6     4     ar
6     7     6     ar
7     8     7     1
8     9     8     1
9     10    8     1
10    11    10    1
11    12    11    ar
12    13    12    1
13    14    12    ar
14    15    14    1
15    16    14    ar
16    17    16    1
17    18    16    ar
18    19    11    ar
19    19    18    ar
20    20    19    1
21    21    1     ar
22    21    7     ar
23    21    20    1
24    22    6     1
25    23    22    1
26    24    22    1
27    25    22    1
28    26    10    2
29    27    20    1
30    28    27    1
31    29    27    1
32    30    29    1
33    31    29    1
34    32    27    1
35    32    29    1
36    33    32    1
37    34    32    1
@<TRIPOS>SUBSTRUCTURE
1   LIG    1    
 
########## Name        : 1VRT.lig
########## Description : AM1BCC_CHARGES =  -0.0002 ORIGINAL_CHARGES =  -0.0000

@<TRIPOS>MOLECULE
1VRT.lig
34    37    1     0     0    
SMALL
USER_CHARGES
@<TRIPOS>ATOM
1     N1       4.0540  -36.9310   22.2210 N.ar    1  LIG  -0.6650  -0.6200 
2     C1       4.9660  -36.2380   22.9390 C.ar    1  LIG   0.3947   0.1600 
3     H1       6.0082  -36.2811   22.6707 H       1  LIG   0.0281   0.1500 
4     C2       4.6240  -35.4500   24.0360 C.ar    1  LIG  -0.2334  -0.1500 
5     H2       5.3884  -34.9151   24.5740 H       1  LIG   0.1480   0.1500 
6     C3       3.3050  -35.3690   24.4150 C.ar    1  LIG  -0.0698  -0.1435 
7     C4       2.3460  -36.0770   23.6860 C.ar    1  LIG  -0.0398   0.1170 
8     N2       0.9890  -36.0280   24.1030 N.am    1  LIG  -0.4596  -0.5470 
9     H3       0.7643  -35.9928   25.0860 H       1  LIG   0.3311   0.3700 
10    C5      -0.1450  -36.0180   23.4080 C.2     1  LIG   0.7361   0.5438 
11    C6      -0.1190  -36.0770   21.8860 C.ar    1  LIG  -0.2550   0.0862 
12    C7      -1.1230  -35.3990   21.1890 C.ar    1  LIG  -0.0321  -0.1500 
13    H4      -1.7552  -34.6955   21.7041 H       1  LIG   0.1623   0.1500 
14    C8      -1.2960  -35.6300   19.8690 C.ar    1  LIG  -0.2723  -0.1500 
15    H5      -2.0662  -35.1073   19.3273 H       1  LIG   0.1522   0.1500 
16    C9      -0.4670  -36.5450   19.2400 C.ar    1  LIG   0.4373   0.1600 
17    H6      -0.5947  -36.7554   18.1915 H       1  LIG   0.0280   0.1500 
18    N3       0.5220  -37.2120   19.8740 N.ar    1  LIG  -0.6893  -0.6200 
19    C10      0.7040  -36.9790   21.1800 C.ar    1  LIG   0.6480   0.4100 
20    N4       1.7670  -37.6730   21.8260 N.pl3   1  LIG  -0.6924  -0.3690 
21    C11      2.7540  -36.8570   22.5840 C.ar    1  LIG   0.5805   0.4100 
22    C12      2.9040  -34.5090   25.6010 C.3     1  LIG  -0.0620   0.1435 
23    H7       2.2235  -33.7630   25.2820 H       1  LIG   0.0570   0.0000 
24    H8       2.4436  -35.1154   26.3371 H       1  LIG   0.0495   0.0000 
25    H9       3.7654  -34.0491   26.0108 H       1  LIG   0.0519   0.0000 
26    O1      -1.2400  -35.9060   23.9770 O.2     1  LIG  -0.6361  -0.5700 
27    C13      2.3440  -38.7570   21.0360 C.3     1  LIG   0.1354   0.0690 
28    H10      3.1238  -38.3754   20.4296 H       1  LIG   0.0981   0.1000 
29    C14      2.9380  -39.8900   21.8010 C.3     1  LIG  -0.1181  -0.2000 
30    H11      3.8890  -40.1268   21.3997 H       1  LIG   0.0732   0.1000 
31    H12      3.0430  -39.6129   22.8177 H       1  LIG   0.0789   0.1000 
32    C15      1.6390  -40.0610   21.0880 C.3     1  LIG  -0.1196  -0.2000 
33    H13      0.6832  -39.9283   21.5242 H       1  LIG   0.0807   0.1000 
34    H14      1.5292  -40.4423   20.1061 H       1  LIG   0.0733   0.1000 
@<TRIPOS>BOND
1     2     1     ar
2     3     2     1
3     4     2     ar
4     5     4     1
5     6     4     ar
6     7     6     ar
7     8     7     1
8     9     8     1
9     10    8     1
10    11    10    1
11    12    11    ar
12    13    12    1
13    14    12    ar
14    15    14    1
15    16    14    ar
16    17    16    1
17    18    16    ar
18    19    11    ar
19    19    18    ar
20    20    19    1
21    21    1     ar
22    21    7     ar
23    21    20    1
24    22    6     1
25    23    22    1
26    24    22    1
27    25    22    1
28    26    10    2
29    27    20    1
30    28    27    1
31    29    27    1
32    30    29    1
33    31    29    1
34    32    27    1
35    32    29    1
36    33    32    1
37    34    32    1
@<TRIPOS>SUBSTRUCTURE
1   LIG    1    
 
########## Name        : 1VRT.lig
########## Description : AM1BCC_CHARGES =  -0.0002 ORIGINAL_CHARGES =  -0.0000

@<TRIPOS>MOLECULE
1VRT.lig
34    37    1     0     0    
SMALL
USER_CHARGES
@<TRIPOS>ATOM
1     N1       4.0540  -36.9310   22.2210 N.ar    1  LIG  -0.6650  -0.6200 
2     C1       4.9660  -36.2380   22.9390 C.ar    1  LIG   0.3947   0.1600 
3     H1       6.0082  -36.2811   22.6707 H       1  LIG   0.0281   0.1500 
4     C2       4.6240  -35.4500   24.0360 C.ar    1  LIG  -0.2334  -0.1500 
5     H2       5.3884  -34.9151   24.5740 H       1  LIG   0.1480   0.1500 
6     C3       3.3050  -35.3690   24.4150 C.ar    1  LIG  -0.0698  -0.1435 
7     C4       2.3460  -36.0770   23.6860 C.ar    1  LIG  -0.0398   0.1170 
8     N2       0.9890  -36.0280   24.1030 N.am    1  LIG  -0.4596  -0.5470 
9     H3       0.7643  -35.9928   25.0860 H       1  LIG   0.3311   0.3700 
10    C5      -0.1450  -36.0180   23.4080 C.2     1  LIG   0.7361   0.5438 
11    C6      -0.1190  -36.0770   21.8860 C.ar    1  LIG  -0.2550   0.0862 
12    C7      -1.1230  -35.3990   21.1890 C.ar    1  LIG  -0.0321  -0.1500 
13    H4      -1.7552  -34.6955   21.7041 H       1  LIG   0.1623   0.1500 
14    C8      -1.2960  -35.6300   19.8690 C.ar    1  LIG  -0.2723  -0.1500 
15    H5      -2.0662  -35.1073   19.3273 H       1  LIG   0.1522   0.1500 
16    C9      -0.4670  -36.5450   19.2400 C.ar    1  LIG   0.4373   0.1600 
17    H6      -0.5947  -36.7554   18.1915 H       1  LIG   0.0280   0.1500 
18    N3       0.5220  -37.2120   19.8740 N.ar    1  LIG  -0.6893  -0.6200 
19    C10      0.7040  -36.9790   21.1800 C.ar    1  LIG   0.6480   0.4100 
20    N4       1.7670  -37.6730   21.8260 N.pl3   1  LIG  -0.6924  -0.3690 
21    C11      2.7540  -36.8570   22.5840 C.ar    1  LIG   0.5805   0.4100 
22    C12      2.9040  -34.5090   25.6010 C.3     1  LIG  -0.0620   0.1435 
23    H7       2.2235  -33.7630   25.2820 H       1  LIG   0.0570   0.0000 
24    H8       2.4436  -35.1154   26.3371 H       1  LIG   0.0495   0.0000 
25    H9       3.7654  -34.0491   26.0108 H       1  LIG   0.0519   0.0000 
26    O1      -1.2400  -35.9060   23.9770 O.2     1  LIG  -0.6361  -0.5700 
27    C13      2.3440  -38.7570   21.0360 C.3     1  LIG   0.1354   0.0690 
28    H10      3.1238  -38.3754   20.4296 H       1  LIG   0.0981   0.1000 
29    C14      2.9380  -39.8900   21.8010 C.3     1  LIG  -0.1181  -0.2000 
30    H11      3.8890  -40.1268   21.3997 H       1  LIG   0.0732   0.1000 
31    H12      3.0430  -39.6129   22.8177 H       1  LIG   0.0789   0.1000 
32    C15      1.6390  -40.0610   21.0880 C.3     1  LIG  -0.1196  -0.2000 
33    H13      0.6832  -39.9283   21.5242 H       1  LIG   0.0807   0.1000 
34    H14      1.5292  -40.4423   20.1061 H       1  LIG   0.0733   0.1000 
@<TRIPOS>BOND
1     2     1     ar
2     3     2     1
3     4     2     ar
4     5     4     1
5     6     4     ar
6     7     6     ar
7     8     7     1
8     9     8     1
9     10    8     1
10    11    10    1
11    12    11    ar
12    13    12    1
13    14    12    ar
14    15    14    1
15    16    14    ar
16    17    16    1
17    18    16    ar
18    19    11    ar
19    19    18    ar
20    20    19    1
21    21    1     ar
22    21    7     ar
23    21    20    1
24    22    6     1
25    23    22    1
26    24    22    1
27    25    22    1
28    26    10    2
29    27    20    1
30    28    27    1
31    29    27    1
32    30    29    1
33    31    29    1
34    32    27    1
35    32    29    1
36    33    32    1
37    34    32    1
@<TRIPOS>SUBSTRUCTURE
1   LIG    1    
 
########## Name        : 1VRT.lig
########## Description : AM1BCC_CHARGES =  -0.0002 ORIGINAL_CHARGES =  -0.0000

@<TRIPOS>MOLECULE
1VRT.lig
34    37    1     0     0    
SMALL
USER_CHARGES
@<TRIPOS>ATOM
1     N1       4.0540  -36.9310   22.2210 N.ar    1  LIG  -0.6650  -0.6200 
2     C1       4.9660  -36.2380   22.9390 C.ar    1  LIG   0.3947   0.1600 
3     H1       6.0082  -36.2811   22.6707 H       1  LIG   0.0281   0.1500 
4     C2       4.6240  -35.4500   24.0360 C.ar    1  LIG  -0.2334  -0.1500 
5     H2       5.3884  -34.9151   24.5740 H       1  LIG   0.1480   0.1500 
6     C3       3.3050  -35.3690   24.4150 C.ar    1  LIG  -0.0698  -0.1435 
7     C4       2.3460  -36.0770   23.6860 C.ar    1  LIG  -0.0398   0.1170 
8     N2       0.9890  -36.0280   24.1030 N.am    1  LIG  -0.4596  -0.5470 
9     H3       0.7643  -35.9928   25.0860 H       1  LIG   0.3311   0.3700 
10    C5      -0.1450  -36.0180   23.4080 C.2     1  LIG   0.7361   0.5438 
11    C6      -0.1190  -36.0770   21.8860 C.ar    1  LIG  -0.2550   0.0862 
12    C7      -1.1230  -35.3990   21.1890 C.ar    1  LIG  -0.0321  -0.1500 
13    H4      -1.7552  -34.6955   21.7041 H       1  LIG   0.1623   0.1500 
14    C8      -1.2960  -35.6300   19.8690 C.ar    1  LIG  -0.2723  -0.1500 
15    H5      -2.0662  -35.1073   19.3273 H       1  LIG   0.1522   0.1500 
16    C9      -0.4670  -36.5450   19.2400 C.ar    1  LIG   0.4373   0.1600 
17    H6      -0.5947  -36.7554   18.1915 H       1  LIG   0.0280   0.1500 
18    N3       0.5220  -37.2120   19.8740 N.ar    1  LIG  -0.6893  -0.6200 
19    C10      0.7040  -36.9790   21.1800 C.ar    1  LIG   0.6480   0.4100 
20    N4       1.7670  -37.6730   21.8260 N.pl3   1  LIG  -0.6924  -0.3690 
21    C11      2.7540  -36.8570   22.5840 C.ar    1  LIG   0.5805   0.4100 
22    C12      2.9040  -34.5090   25.6010 C.3     1  LIG  -0.0620   0.1435 
23    H7       2.2235  -33.7630   25.2820 H       1  LIG   0.0570   0.0000 
24    H8       2.4436  -35.1154   26.3371 H       1  LIG   0.0495   0.0000 
25    H9       3.7654  -34.0491   26.0108 H       1  LIG   0.0519   0.0000 
26    O1      -1.2400  -35.9060   23.9770 O.2     1  LIG  -0.6361  -0.5700 
27    C13      2.3440  -38.7570   21.0360 C.3     1  LIG   0.1354   0.0690 
28    H10      3.1238  -38.3754   20.4296 H       1  LIG   0.0981   0.1000 
29    C14      2.9380  -39.8900   21.8010 C.3     1  LIG  -0.1181  -0.2000 
30    H11      3.8890  -40.1268   21.3997 H       1  LIG   0.0732   0.1000 
31    H12      3.0430  -39.6129   22.8177 H       1  LIG   0.0789   0.1000 
32    C15      1.6390  -40.0610   21.0880 C.3     1  LIG  -0.1196  -0.2000 
33    H13      0.6832  -39.9283   21.5242 H       1  LIG   0.0807   0.1000 
34    H14      1.5292  -40.4423   20.1061 H       1  LIG   0.0733   0.1000 
@<TRIPOS>BOND
1     2     1     ar
2     3     2     1
3     4     2     ar
4     5     4     1
5     6     4     ar
6     7     6     ar
7     8     7     1
8     9     8     1
9     10    8     1
10    11    10    1
11    12    11    ar
12    13    12    1
13    14    12    ar
14    15    14    1
15    16    14    ar
16    17    16    1
17    18    16    ar
18    19    11    ar
19    19    18    ar
20    20    19    1
21    21    1     ar
22    21    7     ar
23    21    20    1
24    22    6     1
25    23    22    1
26    24    22    1
27    25    22    1
28    26    10    2
29    27    20    1
30    28    27    1
31    29    27    1
32    30    29    1
33    31    29    1
34    32    27    1
35    32    29    1
36    33    32    1
37    34    32    1
@<TRIPOS>SUBSTRUCTURE
1   LIG    1    
 
########## Name        : 1VRT.lig
########## Description : AM1BCC_CHARGES =  -0.0002 ORIGINAL_CHARGES =  -0.0000

@<TRIPOS>MOLECULE
1VRT.lig
34    37    1     0     0    
SMALL
USER_CHARGES
@<TRIPOS>ATOM
1     N1       4.0540  -36.9310   22.2210 N.ar    1  LIG  -0.6650  -0.6200 
2     C1       4.9660  -36.2380   22.9390 C.ar    1  LIG   0.3947   0.1600 
3     H1       6.0082  -36.2811   22.6707 H       1  LIG   0.0281   0.1500 
4     C2       4.6240  -35.4500   24.0360 C.ar    1  LIG  -0.2334  -0.1500 
5     H2       5.3884  -34.9151   24.5740 H       1  LIG   0.1480   0.1500 
6     C3       3.3050  -35.3690   24.4150 C.ar    1  LIG  -0.0698  -0.1435 
7     C4       2.3460  -36.0770   23.6860 C.ar    1  LIG  -0.0398   0.1170 
8     N2       0.9890  -36.0280   24.1030 N.am    1  LIG  -0.4596  -0.5470 
9     H3       0.7643  -35.9928   25.0860 H       1  LIG   0.3311   0.3700 
10    C5      -0.1450  -36.0180   23.4080 C.2     1  LIG   0.7361   0.5438 
11    C6      -0.1190  -36.0770   21.8860 C.ar    1  LIG  -0.2550   0.0862 
12    C7      -1.1230  -35.3990   21.1890 C.ar    1  LIG  -0.0321  -0.1500 
13    H4      -1.7552  -34.6955   21.7041 H       1  LIG   0.1623   0.1500 
14    C8      -1.2960  -35.6300   19.8690 C.ar    1  LIG  -0.2723  -0.1500 
15    H5      -2.0662  -35.1073   19.3273 H       1  LIG   0.1522   0.1500 
16    C9      -0.4670  -36.5450   19.2400 C.ar    1  LIG   0.4373   0.1600 
17    H6      -0.5947  -36.7554   18.1915 H       1  LIG   0.0280   0.1500 
18    N3       0.5220  -37.2120   19.8740 N.ar    1  LIG  -0.6893  -0.6200 
19    C10      0.7040  -36.9790   21.1800 C.ar    1  LIG   0.6480   0.4100 
20    N4       1.7670  -37.6730   21.8260 N.pl3   1  LIG  -0.6924  -0.3690 
21    C11      2.7540  -36.8570   22.5840 C.ar    1  LIG   0.5805   0.4100 
22    C12      2.9040  -34.5090   25.6010 C.3     1  LIG  -0.0620   0.1435 
23    H7       2.2235  -33.7630   25.2820 H       1  LIG   0.0570   0.0000 
24    H8       2.4436  -35.1154   26.3371 H       1  LIG   0.0495   0.0000 
25    H9       3.7654  -34.0491   26.0108 H       1  LIG   0.0519   0.0000 
26    O1      -1.2400  -35.9060   23.9770 O.2     1  LIG  -0.6361  -0.5700 
27    C13      2.3440  -38.7570   21.0360 C.3     1  LIG   0.1354   0.0690 
28    H10      3.1238  -38.3754   20.4296 H       1  LIG   0.0981   0.1000 
29    C14      2.9380  -39.8900   21.8010 C.3     1  LIG  -0.1181  -0.2000 
30    H11      3.8890  -40.1268   21.3997 H       1  LIG   0.0732   0.1000 
31    H12      3.0430  -39.6129   22.8177 H       1  LIG   0.0789   0.1000 
32    C15      1.6390  -40.0610   21.0880 C.3     1  LIG  -0.1196  -0.2000 
33    H13      0.6832  -39.9283   21.5242 H       1  LIG   0.0807   0.1000 
34    H14      1.5292  -40.4423   20.1061 H       1  LIG   0.0733   0.1000 
@<TRIPOS>BOND
1     2     1     ar
2     3     2     1
3     4     2     ar
4     5     4     1
5     6     4     ar
6     7     6     ar
7     8     7     1
8     9     8     1
9     10    8     1
10    11    10    1
11    12    11    ar
12    13    12    1
13    14    12    ar
14    15    14    1
15    16    14    ar
16    17    16    1
17    18    16    ar
18    19    11    ar
19    19    18    ar
20    20    19    1
21    21    1     ar
22    21    7     ar
23    21    20    1
24    22    6     1
25    23    22    1
26    24    22    1
27    25    22    1
28    26    10    2
29    27    20    1
30    28    27    1
31    29    27    1
32    30    29    1
33    31    29    1
34    32    27    1
35    32    29    1
36    33    32    1
37    34    32    1
@<TRIPOS>SUBSTRUCTURE
1   LIG    1    
 
########## Name        : 1VRT.lig
########## Description : AM1BCC_CHARGES =  -0.0002 ORIGINAL_CHARGES =  -0.0000

@<TRIPOS>MOLECULE
1VRT.lig
34    37    1     0     0    
SMALL
USER_CHARGES
@<TRIPOS>ATOM
1     N1       4.0540  -36.9310   22.2210 N.ar    1  LIG  -0.6650  -0.6200 
2     C1       4.9660  -36.2380   22.9390 C.ar    1  LIG   0.3947   0.1600 
3     H1       6.0082  -36.2811   22.6707 H       1  LIG   0.0281   0.1500 
4     C2       4.6240  -35.4500   24.0360 C.ar    1  LIG  -0.2334  -0.1500 
5     H2       5.3884  -34.9151   24.5740 H       1  LIG   0.1480   0.1500 
6     C3       3.3050  -35.3690   24.4150 C.ar    1  LIG  -0.0698  -0.1435 
7     C4       2.3460  -36.0770   23.6860 C.ar    1  LIG  -0.0398   0.1170 
8     N2       0.9890  -36.0280   24.1030 N.am    1  LIG  -0.4596  -0.5470 
9     H3       0.7643  -35.9928   25.0860 H       1  LIG   0.3311   0.3700 
10    C5      -0.1450  -36.0180   23.4080 C.2     1  LIG   0.7361   0.5438 
11    C6      -0.1190  -36.0770   21.8860 C.ar    1  LIG  -0.2550   0.0862 
12    C7      -1.1230  -35.3990   21.1890 C.ar    1  LIG  -0.0321  -0.1500 
13    H4      -1.7552  -34.6955   21.7041 H       1  LIG   0.1623   0.1500 
14    C8      -1.2960  -35.6300   19.8690 C.ar    1  LIG  -0.2723  -0.1500 
15    H5      -2.0662  -35.1073   19.3273 H       1  LIG   0.1522   0.1500 
16    C9      -0.4670  -36.5450   19.2400 C.ar    1  LIG   0.4373   0.1600 
17    H6      -0.5947  -36.7554   18.1915 H       1  LIG   0.0280   0.1500 
18    N3       0.5220  -37.2120   19.8740 N.ar    1  LIG  -0.6893  -0.6200 
19    C10      0.7040  -36.9790   21.1800 C.ar    1  LIG   0.6480   0.4100 
20    N4       1.7670  -37.6730   21.8260 N.pl3   1  LIG  -0.6924  -0.3690 
21    C11      2.7540  -36.8570   22.5840 C.ar    1  LIG   0.5805   0.4100 
22    C12      2.9040  -34.5090   25.6010 C.3     1  LIG  -0.0620   0.1435 
23    H7       2.2235  -33.7630   25.2820 H       1  LIG   0.0570   0.0000 
24    H8       2.4436  -35.1154   26.3371 H       1  LIG   0.0495   0.0000 
25    H9       3.7654  -34.0491   26.0108 H       1  LIG   0.0519   0.0000 
26    O1      -1.2400  -35.9060   23.9770 O.2     1  LIG  -0.6361  -0.5700 
27    C13      2.3440  -38.7570   21.0360 C.3     1  LIG   0.1354   0.0690 
28    H10      3.1238  -38.3754   20.4296 H       1  LIG   0.0981   0.1000 
29    C14      2.9380  -39.8900   21.8010 C.3     1  LIG  -0.1181  -0.2000 
30    H11      3.8890  -40.1268   21.3997 H       1  LIG   0.0732   0.1000 
31    H12      3.0430  -39.6129   22.8177 H       1  LIG   0.0789   0.1000 
32    C15      1.6390  -40.0610   21.0880 C.3     1  LIG  -0.1196  -0.2000 
33    H13      0.6832  -39.9283   21.5242 H       1  LIG   0.0807   0.1000 
34    H14      1.5292  -40.4423   20.1061 H       1  LIG   0.0733   0.1000 
@<TRIPOS>BOND
1     2     1     ar
2     3     2     1
3     4     2     ar
4     5     4     1
5     6     4     ar
6     7     6     ar
7     8     7     1
8     9     8     1
9     10    8     1
10    11    10    1
11    12    11    ar
12    13    12    1
13    14    12    ar
14    15    14    1
15    16    14    ar
16    17    16    1
17    18    16    ar
18    19    11    ar
19    19    18    ar
20    20    19    1
21    21    1     ar
22    21    7     ar
23    21    20    1
24    22    6     1
25    23    22    1
26    24    22    1
27    25    22    1
28    26    10    2
29    27    20    1
30    28    27    1
31    29    27    1
32    30    29    1
33    31    29    1
34    32    27    1
35    32    29    1
36    33    32    1
37    34    32    1
@<TRIPOS>SUBSTRUCTURE
1   LIG    1    
 
########## Name        : 1VRT.lig
########## Description : AM1BCC_CHARGES =  -0.0002 ORIGINAL_CHARGES =  -0.0000

@<TRIPOS>MOLECULE
1VRT.lig
34    37    1     0     0    
SMALL
USER_CHARGES
@<TRIPOS>ATOM
1     N1       4.0540  -36.9310   22.2210 N.ar    1  LIG  -0.6650  -0.6200 
2     C1       4.9660  -36.2380   22.9390 C.ar    1  LIG   0.3947   0.1600 
3     H1       6.0082  -36.2811   22.6707 H       1  LIG   0.0281   0.1500 
4     C2       4.6240  -35.4500   24.0360 C.ar    1  LIG  -0.2334  -0.1500 
5     H2       5.3884  -34.9151   24.5740 H       1  LIG   0.1480   0.1500 
6     C3       3.3050  -35.3690   24.4150 C.ar    1  LIG  -0.0698  -0.1435 
7     C4       2.3460  -36.0770   23.6860 C.ar    1  LIG  -0.0398   0.1170 
8     N2       0.9890  -36.0280   24.1030 N.am    1  LIG  -0.4596  -0.5470 
9     H3       0.7643  -35.9928   25.0860 H       1  LIG   0.3311   0.3700 
10    C5      -0.1450  -36.0180   23.4080 C.2     1  LIG   0.7361   0.5438 
11    C6      -0.1190  -36.0770   21.8860 C.ar    1  LIG  -0.2550   0.0862 
12    C7      -1.1230  -35.3990   21.1890 C.ar    1  LIG  -0.0321  -0.1500 
13    H4      -1.7552  -34.6955   21.7041 H       1  LIG   0.1623   0.1500 
14    C8      -1.2960  -35.6300   19.8690 C.ar    1  LIG  -0.2723  -0.1500 
15    H5      -2.0662  -35.1073   19.3273 H       1  LIG   0.1522   0.1500 
16    C9      -0.4670  -36.5450   19.2400 C.ar    1  LIG   0.4373   0.1600 
17    H6      -0.5947  -36.7554   18.1915 H       1  LIG   0.0280   0.1500 
18    N3       0.5220  -37.2120   19.8740 N.ar    1  LIG  -0.6893  -0.6200 
19    C10      0.7040  -36.9790   21.1800 C.ar    1  LIG   0.6480   0.4100 
20    N4       1.7670  -37.6730   21.8260 N.pl3   1  LIG  -0.6924  -0.3690 
21    C11      2.7540  -36.8570   22.5840 C.ar    1  LIG   0.5805   0.4100 
22    C12      2.9040  -34.5090   25.6010 C.3     1  LIG  -0.0620   0.1435 
23    H7       2.2235  -33.7630   25.2820 H       1  LIG   0.0570   0.0000 
24    H8       2.4436  -35.1154   26.3371 H       1  LIG   0.0495   0.0000 
25    H9       3.7654  -34.0491   26.0108 H       1  LIG   0.0519   0.0000 
26    O1      -1.2400  -35.9060   23.9770 O.2     1  LIG  -0.6361  -0.5700 
27    C13      2.3440  -38.7570   21.0360 C.3     1  LIG   0.1354   0.0690 
28    H10      3.1238  -38.3754   20.4296 H       1  LIG   0.0981   0.1000 
29    C14      2.9380  -39.8900   21.8010 C.3     1  LIG  -0.1181  -0.2000 
30    H11      3.8890  -40.1268   21.3997 H       1  LIG   0.0732   0.1000 
31    H12      3.0430  -39.6129   22.8177 H       1  LIG   0.0789   0.1000 
32    C15      1.6390  -40.0610   21.0880 C.3     1  LIG  -0.1196  -0.2000 
33    H13      0.6832  -39.9283   21.5242 H       1  LIG   0.0807   0.1000 
34    H14      1.5292  -40.4423   20.1061 H       1  LIG   0.0733   0.1000 
@<TRIPOS>BOND
1     2     1     ar
2     3     2     1
3     4     2     ar
4     5     4     1
5     6     4     ar
6     7     6     ar
7     8     7     1
8     9     8     1
9     10    8     1
10    11    10    1
11    12    11    ar
12    13    12    1
13    14    12    ar
14    15    14    1
15    16    14    ar
16    17    16    1
17    18    16    ar
18    19    11    ar
19    19    18    ar
20    20    19    1
21    21    1     ar
22    21    7     ar
23    21    20    1
24    22    6     1
25    23    22    1
26    24    22    1
27    25    22    1
28    26    10    2
29    27    20    1
30    28    27    1
31    29    27    1
32    30    29    1
33    31    29    1
34    32    27    1
35    32    29    1
36    33    32    1
37    34    32    1
@<TRIPOS>SUBSTRUCTURE
1   LIG    1    
 
########## Name        : 1VRT.lig
########## Description : AM1BCC_CHARGES =  -0.0002 ORIGINAL_CHARGES =  -0.0000

@<TRIPOS>MOLECULE
1VRT.lig
34    37    1     0     0    
SMALL
USER_CHARGES
@<TRIPOS>ATOM
1     N1       4.0540  -36.9310   22.2210 N.ar    1  LIG  -0.6650  -0.6200 
2     C1       4.9660  -36.2380   22.9390 C.ar    1  LIG   0.3947   0.1600 
3     H1       6.0082  -36.2811   22.6707 H       1  LIG   0.0281   0.1500 
4     C2       4.6240  -35.4500   24.0360 C.ar    1  LIG  -0.2334  -0.1500 
5     H2       5.3884  -34.9151   24.5740 H       1  LIG   0.1480   0.1500 
6     C3       3.3050  -35.3690   24.4150 C.ar    1  LIG  -0.0698  -0.1435 
7     C4       2.3460  -36.0770   23.6860 C.ar    1  LIG  -0.0398   0.1170 
8     N2       0.9890  -36.0280   24.1030 N.am    1  LIG  -0.4596  -0.5470 
9     H3       0.7643  -35.9928   25.0860 H       1  LIG   0.3311   0.3700 
10    C5      -0.1450  -36.0180   23.4080 C.2     1  LIG   0.7361   0.5438 
11    C6      -0.1190  -36.0770   21.8860 C.ar    1  LIG  -0.2550   0.0862 
12    C7      -1.1230  -35.3990   21.1890 C.ar    1  LIG  -0.0321  -0.1500 
13    H4      -1.7552  -34.6955   21.7041 H       1  LIG   0.1623   0.1500 
14    C8      -1.2960  -35.6300   19.8690 C.ar    1  LIG  -0.2723  -0.1500 
15    H5      -2.0662  -35.1073   19.3273 H       1  LIG   0.1522   0.1500 
16    C9      -0.4670  -36.5450   19.2400 C.ar    1  LIG   0.4373   0.1600 
17    H6      -0.5947  -36.7554   18.1915 H       1  LIG   0.0280   0.1500 
18    N3       0.5220  -37.2120   19.8740 N.ar    1  LIG  -0.6893  -0.6200 
19    C10      0.7040  -36.9790   21.1800 C.ar    1  LIG   0.6480   0.4100 
20    N4       1.7670  -37.6730   21.8260 N.pl3   1  LIG  -0.6924  -0.3690 
21    C11      2.7540  -36.8570   22.5840 C.ar    1  LIG   0.5805   0.4100 
22    C12      2.9040  -34.5090   25.6010 C.3     1  LIG  -0.0620   0.1435 
23    H7       2.2235  -33.7630   25.2820 H       1  LIG   0.0570   0.0000 
24    H8       2.4436  -35.1154   26.3371 H       1  LIG   0.0495   0.0000 
25    H9       3.7654  -34.0491   26.0108 H       1  LIG   0.0519   0.0000 
26    O1      -1.2400  -35.9060   23.9770 O.2     1  LIG  -0.6361  -0.5700 
27    C13      2.3440  -38.7570   21.0360 C.3     1  LIG   0.1354   0.0690 
28    H10      3.1238  -38.3754   20.4296 H       1  LIG   0.0981   0.1000 
29    C14      2.9380  -39.8900   21.8010 C.3     1  LIG  -0.1181  -0.2000 
30    H11      3.8890  -40.1268   21.3997 H       1  LIG   0.0732   0.1000 
31    H12      3.0430  -39.6129   22.8177 H       1  LIG   0.0789   0.1000 
32    C15      1.6390  -40.0610   21.0880 C.3     1  LIG  -0.1196  -0.2000 
33    H13      0.6832  -39.9283   21.5242 H       1  LIG   0.0807   0.1000 
34    H14      1.5292  -40.4423   20.1061 H       1  LIG   0.0733   0.1000 
@<TRIPOS>BOND
1     2     1     ar
2     3     2     1
3     4     2     ar
4     5     4     1
5     6     4     ar
6     7     6     ar
7     8     7     1
8     9     8     1
9     10    8     1
10    11    10    1
11    12    11    ar
12    13    12    1
13    14    12    ar
14    15    14    1
15    16    14    ar
16    17    16    1
17    18    16    ar
18    19    11    ar
19    19    18    ar
20    20    19    1
21    21    1     ar
22    21    7     ar
23    21    20    1
24    22    6     1
25    23    22    1
26    24    22    1
27    25    22    1
28    26    10    2
29    27    20    1
30    28    27    1
31    29    27    1
32    30    29    1
33    31    29    1
34    32    27    1
35    32    29    1
36    33    32    1
37    34    32    1
@<TRIPOS>SUBSTRUCTURE
1   LIG    1    
 
########## Name        : 1VRT.lig
########## Description : AM1BCC_CHARGES =  -0.0002 ORIGINAL_CHARGES =  -0.0000

@<TRIPOS>MOLECULE
1VRT.lig
34    37    1     0     0    
SMALL
USER_CHARGES
@<TRIPOS>ATOM
1     N1       4.0540  -36.9310   22.2210 N.ar    1  LIG  -0.6650  -0.6200 
2     C1       4.9660  -36.2380   22.9390 C.ar    1  LIG   0.3947   0.1600 
3     H1       6.0082  -36.2811   22.6707 H       1  LIG   0.0281   0.1500 
4     C2       4.6240  -35.4500   24.0360 C.ar    1  LIG  -0.2334  -0.1500 
5     H2       5.3884  -34.9151   24.5740 H       1  LIG   0.1480   0.1500 
6     C3       3.3050  -35.3690   24.4150 C.ar    1  LIG  -0.0698  -0.1435 
7     C4       2.3460  -36.0770   23.6860 C.ar    1  LIG  -0.0398   0.1170 
8     N2       0.9890  -36.0280   24.1030 N.am    1  LIG  -0.4596  -0.5470 
9     H3       0.7643  -35.9928   25.0860 H       1  LIG   0.3311   0.3700 
10    C5      -0.1450  -36.0180   23.4080 C.2     1  LIG   0.7361   0.5438 
11    C6      -0.1190  -36.0770   21.8860 C.ar    1  LIG  -0.2550   0.0862 
12    C7      -1.1230  -35.3990   21.1890 C.ar    1  LIG  -0.0321  -0.1500 
13    H4      -1.7552  -34.6955   21.7041 H       1  LIG   0.1623   0.1500 
14    C8      -1.2960  -35.6300   19.8690 C.ar    1  LIG  -0.2723  -0.1500 
15    H5      -2.0662  -35.1073   19.3273 H       1  LIG   0.1522   0.1500 
16    C9      -0.4670  -36.5450   19.2400 C.ar    1  LIG   0.4373   0.1600 
17    H6      -0.5947  -36.7554   18.1915 H       1  LIG   0.0280   0.1500 
18    N3       0.5220  -37.2120   19.8740 N.ar    1  LIG  -0.6893  -0.6200 
19    C10      0.7040  -36.9790   21.1800 C.ar    1  LIG   0.6480   0.4100 
20    N4       1.7670  -37.6730   21.8260 N.pl3   1  LIG  -0.6924  -0.3690 
21    C11      2.7540  -36.8570   22.5840 C.ar    1  LIG   0.5805   0.4100 
22    C12      2.9040  -34.5090   25.6010 C.3     1  LIG  -0.0620   0.1435 
23    H7       2.2235  -33.7630   25.2820 H       1  LIG   0.0570   0.0000 
24    H8       2.4436  -35.1154   26.3371 H       1  LIG   0.0495   0.0000 
25    H9       3.7654  -34.0491   26.0108 H       1  LIG   0.0519   0.0000 
26    O1      -1.2400  -35.9060   23.9770 O.2     1  LIG  -0.6361  -0.5700 
27    C13      2.3440  -38.7570   21.0360 C.3     1  LIG   0.1354   0.0690 
28    H10      3.1238  -38.3754   20.4296 H       1  LIG   0.0981   0.1000 
29    C14      2.9380  -39.8900   21.8010 C.3     1  LIG  -0.1181  -0.2000 
30    H11      3.8890  -40.1268   21.3997 H       1  LIG   0.0732   0.1000 
31    H12      3.0430  -39.6129   22.8177 H       1  LIG   0.0789   0.1000 
32    C15      1.6390  -40.0610   21.0880 C.3     1  LIG  -0.1196  -0.2000 
33    H13      0.6832  -39.9283   21.5242 H       1  LIG   0.0807   0.1000 
34    H14      1.5292  -40.4423   20.1061 H       1  LIG   0.0733   0.1000 
@<TRIPOS>BOND
1     2     1     ar
2     3     2     1
3     4     2     ar
4     5     4     1
5     6     4     ar
6     7     6     ar
7     8     7     1
8     9     8     1
9     10    8     1
10    11    10    1
11    12    11    ar
12    13    12    1
13    14    12    ar
14    15    14    1
15    16    14    ar
16    17    16    1
17    18    16    ar
18    19    11    ar
19    19    18    ar
20    20    19    1
21    21    1     ar
22    21    7     ar
23    21    20    1
24    22    6     1
25    23    22    1
26    24    22    1
27    25    22    1
28    26    10    2
29    27    20    1
30    28    27    1
31    29    27    1
32    30    29    1
33    31    29    1
34    32    27    1
35    32    29    1
36    33    32    1
37    34    32    1
@<TRIPOS>SUBSTRUCTURE
1   LIG    1    
 
########## Name        : 1VRT.lig
########## Description : AM1BCC_CHARGES =  -0.0002 ORIGINAL_CHARGES =  -0.0000

@<TRIPOS>MOLECULE
1VRT.lig
34    37    1     0     0    
SMALL
USER_CHARGES
@<TRIPOS>ATOM
1     N1       4.0540  -36.9310   22.2210 N.ar    1  LIG  -0.6650  -0.6200 
2     C1       4.9660  -36.2380   22.9390 C.ar    1  LIG   0.3947   0.1600 
3     H1       6.0082  -36.2811   22.6707 H       1  LIG   0.0281   0.1500 
4     C2       4.6240  -35.4500   24.0360 C.ar    1  LIG  -0.2334  -0.1500 
5     H2       5.3884  -34.9151   24.5740 H       1  LIG   0.1480   0.1500 
6     C3       3.3050  -35.3690   24.4150 C.ar    1  LIG  -0.0698  -0.1435 
7     C4       2.3460  -36.0770   23.6860 C.ar    1  LIG  -0.0398   0.1170 
8     N2       0.9890  -36.0280   24.1030 N.am    1  LIG  -0.4596  -0.5470 
9     H3       0.7643  -35.9928   25.0860 H       1  LIG   0.3311   0.3700 
10    C5      -0.1450  -36.0180   23.4080 C.2     1  LIG   0.7361   0.5438 
11    C6      -0.1190  -36.0770   21.8860 C.ar    1  LIG  -0.2550   0.0862 
12    C7      -1.1230  -35.3990   21.1890 C.ar    1  LIG  -0.0321  -0.1500 
13    H4      -1.7552  -34.6955   21.7041 H       1  LIG   0.1623   0.1500 
14    C8      -1.2960  -35.6300   19.8690 C.ar    1  LIG  -0.2723  -0.1500 
15    H5      -2.0662  -35.1073   19.3273 H       1  LIG   0.1522   0.1500 
16    C9      -0.4670  -36.5450   19.2400 C.ar    1  LIG   0.4373   0.1600 
17    H6      -0.5947  -36.7554   18.1915 H       1  LIG   0.0280   0.1500 
18    N3       0.5220  -37.2120   19.8740 N.ar    1  LIG  -0.6893  -0.6200 
19    C10      0.7040  -36.9790   21.1800 C.ar    1  LIG   0.6480   0.4100 
20    N4       1.7670  -37.6730   21.8260 N.pl3   1  LIG  -0.6924  -0.3690 
21    C11      2.7540  -36.8570   22.5840 C.ar    1  LIG   0.5805   0.4100 
22    C12      2.9040  -34.5090   25.6010 C.3     1  LIG  -0.0620   0.1435 
23    H7       2.2235  -33.7630   25.2820 H       1  LIG   0.0570   0.0000 
24    H8       2.4436  -35.1154   26.3371 H       1  LIG   0.0495   0.0000 
25    H9       3.7654  -34.0491   26.0108 H       1  LIG   0.0519   0.0000 
26    O1      -1.2400  -35.9060   23.9770 O.2     1  LIG  -0.6361  -0.5700 
27    C13      2.3440  -38.7570   21.0360 C.3     1  LIG   0.1354   0.0690 
28    H10      3.1238  -38.3754   20.4296 H       1  LIG   0.0981   0.1000 
29    C14      2.9380  -39.8900   21.8010 C.3     1  LIG  -0.1181  -0.2000 
30    H11      3.8890  -40.1268   21.3997 H       1  LIG   0.0732   0.1000 
31    H12      3.0430  -39.6129   22.8177 H       1  LIG   0.0789   0.1000 
32    C15      1.6390  -40.0610   21.0880 C.3     1  LIG  -0.1196  -0.2000 
33    H13      0.6832  -39.9283   21.5242 H       1  LIG   0.0807   0.1000 
34    H14      1.5292  -40.4423   20.1061 H       1  LIG   0.0733   0.1000 
@<TRIPOS>BOND
1     2     1     ar
2     3     2     1
3     4     2     ar
4     5     4     1
5     6     4     ar
6     7     6     ar
7     8     7     1
8     9     8     1
9     10    8     1
10    11    10    1
11    12    11    ar
12    13    12    1
13    14    12    ar
14    15    14    1
15    16    14    ar
16    17    16    1
17    18    16    ar
18    19    11    ar
19    19    18    ar
20    20    19    1
21    21    1     ar
22    21    7     ar
23    21    20    1
24    22    6     1
25    23    22    1
26    24    22    1
27    25    22    1
28    26    10    2
29    27    20    1
30    28    27    1
31    29    27    1
32    30    29    1
33    31    29    1
34    32    27    1
35    32    29    1
36    33    32    1
37    34    32    1
@<TRIPOS>SUBSTRUCTURE
1   LIG    1    
 
########## Name        : 1VRT.lig
########## Description : AM1BCC_CHARGES =  -0.0002 ORIGINAL_CHARGES =  -0.0000

@<TRIPOS>MOLECULE
1VRT.lig
34    37    1     0     0    
SMALL
USER_CHARGES
@<TRIPOS>ATOM
1     N1       4.0540  -36.9310   22.2210 N.ar    1  LIG  -0.6650  -0.6200 
2     C1       4.9660  -36.2380   22.9390 C.ar    1  LIG   0.3947   0.1600 
3     H1       6.0082  -36.2811   22.6707 H       1  LIG   0.0281   0.1500 
4     C2       4.6240  -35.4500   24.0360 C.ar    1  LIG  -0.2334  -0.1500 
5     H2       5.3884  -34.9151   24.5740 H       1  LIG   0.1480   0.1500 
6     C3       3.3050  -35.3690   24.4150 C.ar    1  LIG  -0.0698  -0.1435 
7     C4       2.3460  -36.0770   23.6860 C.ar    1  LIG  -0.0398   0.1170 
8     N2       0.9890  -36.0280   24.1030 N.am    1  LIG  -0.4596  -0.5470 
9     H3       0.7643  -35.9928   25.0860 H       1  LIG   0.3311   0.3700 
10    C5      -0.1450  -36.0180   23.4080 C.2     1  LIG   0.7361   0.5438 
11    C6      -0.1190  -36.0770   21.8860 C.ar    1  LIG  -0.2550   0.0862 
12    C7      -1.1230  -35.3990   21.1890 C.ar    1  LIG  -0.0321  -0.1500 
13    H4      -1.7552  -34.6955   21.7041 H       1  LIG   0.1623   0.1500 
14    C8      -1.2960  -35.6300   19.8690 C.ar    1  LIG  -0.2723  -0.1500 
15    H5      -2.0662  -35.1073   19.3273 H       1  LIG   0.1522   0.1500 
16    C9      -0.4670  -36.5450   19.2400 C.ar    1  LIG   0.4373   0.1600 
17    H6      -0.5947  -36.7554   18.1915 H       1  LIG   0.0280   0.1500 
18    N3       0.5220  -37.2120   19.8740 N.ar    1  LIG  -0.6893  -0.6200 
19    C10      0.7040  -36.9790   21.1800 C.ar    1  LIG   0.6480   0.4100 
20    N4       1.7670  -37.6730   21.8260 N.pl3   1  LIG  -0.6924  -0.3690 
21    C11      2.7540  -36.8570   22.5840 C.ar    1  LIG   0.5805   0.4100 
22    C12      2.9040  -34.5090   25.6010 C.3     1  LIG  -0.0620   0.1435 
23    H7       2.2235  -33.7630   25.2820 H       1  LIG   0.0570   0.0000 
24    H8       2.4436  -35.1154   26.3371 H       1  LIG   0.0495   0.0000 
25    H9       3.7654  -34.0491   26.0108 H       1  LIG   0.0519   0.0000 
26    O1      -1.2400  -35.9060   23.9770 O.2     1  LIG  -0.6361  -0.5700 
27    C13      2.3440  -38.7570   21.0360 C.3     1  LIG   0.1354   0.0690 
28    H10      3.1238  -38.3754   20.4296 H       1  LIG   0.0981   0.1000 
29    C14      2.9380  -39.8900   21.8010 C.3     1  LIG  -0.1181  -0.2000 
30    H11      3.8890  -40.1268   21.3997 H       1  LIG   0.0732   0.1000 
31    H12      3.0430  -39.6129   22.8177 H       1  LIG   0.0789   0.1000 
32    C15      1.6390  -40.0610   21.0880 C.3     1  LIG  -0.1196  -0.2000 
33    H13      0.6832  -39.9283   21.5242 H       1  LIG   0.0807   0.1000 
34    H14      1.5292  -40.4423   20.1061 H       1  LIG   0.0733   0.1000 
@<TRIPOS>BOND
1     2     1     ar
2     3     2     1
3     4     2     ar
4     5     4     1
5     6     4     ar
6     7     6     ar
7     8     7     1
8     9     8     1
9     10    8     1
10    11    10    1
11    12    11    ar
12    13    12    1
13    14    12    ar
14    15    14    1
15    16    14    ar
16    17    16    1
17    18    16    ar
18    19    11    ar
19    19    18    ar
20    20    19    1
21    21    1     ar
22    21    7     ar
23    21    20    1
24    22    6     1
25    23    22    1
26    24    22    1
27    25    22    1
28    26    10    2
29    27    20    1
30    28    27    1
31    29    27    1
32    30    29    1
33    31    29    1
34    32    27    1
35    32    29    1
36    33    32    1
37    34    32    1
@<TRIPOS>SUBSTRUCTURE
1   LIG    1    
 
########## Name        : 1VRT.lig
########## Description : AM1BCC_CHARGES =  -0.0002 ORIGINAL_CHARGES =  -0.0000

@<TRIPOS>MOLECULE
1VRT.lig
34    37    1     0     0    
SMALL
USER_CHARGES
@<TRIPOS>ATOM
1     N1       4.0540  -36.9310   22.2210 N.ar    1  LIG  -0.6650  -0.6200 
2     C1       4.9660  -36.2380   22.9390 C.ar    1  LIG   0.3947   0.1600 
3     H1       6.0082  -36.2811   22.6707 H       1  LIG   0.0281   0.1500 
4     C2       4.6240  -35.4500   24.0360 C.ar    1  LIG  -0.2334  -0.1500 
5     H2       5.3884  -34.9151   24.5740 H       1  LIG   0.1480   0.1500 
6     C3       3.3050  -35.3690   24.4150 C.ar    1  LIG  -0.0698  -0.1435 
7     C4       2.3460  -36.0770   23.6860 C.ar    1  LIG  -0.0398   0.1170 
8     N2       0.9890  -36.0280   24.1030 N.am    1  LIG  -0.4596  -0.5470 
9     H3       0.7643  -35.9928   25.0860 H       1  LIG   0.3311   0.3700 
10    C5      -0.1450  -36.0180   23.4080 C.2     1  LIG   0.7361   0.5438 
11    C6      -0.1190  -36.0770   21.8860 C.ar    1  LIG  -0.2550   0.0862 
12    C7      -1.1230  -35.3990   21.1890 C.ar    1  LIG  -0.0321  -0.1500 
13    H4      -1.7552  -34.6955   21.7041 H       1  LIG   0.1623   0.1500 
14    C8      -1.2960  -35.6300   19.8690 C.ar    1  LIG  -0.2723  -0.1500 
15    H5      -2.0662  -35.1073   19.3273 H       1  LIG   0.1522   0.1500 
16    C9      -0.4670  -36.5450   19.2400 C.ar    1  LIG   0.4373   0.1600 
17    H6      -0.5947  -36.7554   18.1915 H       1  LIG   0.0280   0.1500 
18    N3       0.5220  -37.2120   19.8740 N.ar    1  LIG  -0.6893  -0.6200 
19    C10      0.7040  -36.9790   21.1800 C.ar    1  LIG   0.6480   0.4100 
20    N4       1.7670  -37.6730   21.8260 N.pl3   1  LIG  -0.6924  -0.3690 
21    C11      2.7540  -36.8570   22.5840 C.ar    1  LIG   0.5805   0.4100 
22    C12      2.9040  -34.5090   25.6010 C.3     1  LIG  -0.0620   0.1435 
23    H7       2.2235  -33.7630   25.2820 H       1  LIG   0.0570   0.0000 
24    H8       2.4436  -35.1154   26.3371 H       1  LIG   0.0495   0.0000 
25    H9       3.7654  -34.0491   26.0108 H       1  LIG   0.0519   0.0000 
26    O1      -1.2400  -35.9060   23.9770 O.2     1  LIG  -0.6361  -0.5700 
27    C13      2.3440  -38.7570   21.0360 C.3     1  LIG   0.1354   0.0690 
28    H10      3.1238  -38.3754   20.4296 H       1  LIG   0.0981   0.1000 
29    C14      2.9380  -39.8900   21.8010 C.3     1  LIG  -0.1181  -0.2000 
30    H11      3.8890  -40.1268   21.3997 H       1  LIG   0.0732   0.1000 
31    H12      3.0430  -39.6129   22.8177 H       1  LIG   0.0789   0.1000 
32    C15      1.6390  -40.0610   21.0880 C.3     1  LIG  -0.1196  -0.2000 
33    H13      0.6832  -39.9283   21.5242 H       1  LIG   0.0807   0.1000 
34    H14      1.5292  -40.4423   20.1061 H       1  LIG   0.0733   0.1000 
@<TRIPOS>BOND
1     2     1     ar
2     3     2     1
3     4     2     ar
4     5     4     1
5     6     4     ar
6     7     6     ar
7     8     7     1
8     9     8     1
9     10    8     1
10    11    10    1
11    12    11    ar
12    13    12    1
13    14    12    ar
14    15    14    1
15    16    14    ar
16    17    16    1
17    18    16    ar
18    19    11    ar
19    19    18    ar
20    20    19    1
21    21    1     ar
22    21    7     ar
23    21    20    1
24    22    6     1
25    23    22    1
26    24    22    1
27    25    22    1
28    26    10    2
29    27    20    1
30    28    27    1
31    29    27    1
32    30    29    1
33    31    29    1
34    32    27    1
35    32    29    1
36    33    32    1
37    34    32    1
@<TRIPOS>SUBSTRUCTURE
1   LIG    1    
 
########## Name        : 1VRT.lig
########## Description : AM1BCC_CHARGES =  -0.0002 ORIGINAL_CHARGES =  -0.0000

@<TRIPOS>MOLECULE
1VRT.lig
34    37    1     0     0    
SMALL
USER_CHARGES
@<TRIPOS>ATOM
1     N1       4.0540  -36.9310   22.2210 N.ar    1  LIG  -0.6650  -0.6200 
2     C1       4.9660  -36.2380   22.9390 C.ar    1  LIG   0.3947   0.1600 
3     H1       6.0082  -36.2811   22.6707 H       1  LIG   0.0281   0.1500 
4     C2       4.6240  -35.4500   24.0360 C.ar    1  LIG  -0.2334  -0.1500 
5     H2       5.3884  -34.9151   24.5740 H       1  LIG   0.1480   0.1500 
6     C3       3.3050  -35.3690   24.4150 C.ar    1  LIG  -0.0698  -0.1435 
7     C4       2.3460  -36.0770   23.6860 C.ar    1  LIG  -0.0398   0.1170 
8     N2       0.9890  -36.0280   24.1030 N.am    1  LIG  -0.4596  -0.5470 
9     H3       0.7643  -35.9928   25.0860 H       1  LIG   0.3311   0.3700 
10    C5      -0.1450  -36.0180   23.4080 C.2     1  LIG   0.7361   0.5438 
11    C6      -0.1190  -36.0770   21.8860 C.ar    1  LIG  -0.2550   0.0862 
12    C7      -1.1230  -35.3990   21.1890 C.ar    1  LIG  -0.0321  -0.1500 
13    H4      -1.7552  -34.6955   21.7041 H       1  LIG   0.1623   0.1500 
14    C8      -1.2960  -35.6300   19.8690 C.ar    1  LIG  -0.2723  -0.1500 
15    H5      -2.0662  -35.1073   19.3273 H       1  LIG   0.1522   0.1500 
16    C9      -0.4670  -36.5450   19.2400 C.ar    1  LIG   0.4373   0.1600 
17    H6      -0.5947  -36.7554   18.1915 H       1  LIG   0.0280   0.1500 
18    N3       0.5220  -37.2120   19.8740 N.ar    1  LIG  -0.6893  -0.6200 
19    C10      0.7040  -36.9790   21.1800 C.ar    1  LIG   0.6480   0.4100 
20    N4       1.7670  -37.6730   21.8260 N.pl3   1  LIG  -0.6924  -0.3690 
21    C11      2.7540  -36.8570   22.5840 C.ar    1  LIG   0.5805   0.4100 
22    C12      2.9040  -34.5090   25.6010 C.3     1  LIG  -0.0620   0.1435 
23    H7       2.2235  -33.7630   25.2820 H       1  LIG   0.0570   0.0000 
24    H8       2.4436  -35.1154   26.3371 H       1  LIG   0.0495   0.0000 
25    H9       3.7654  -34.0491   26.0108 H       1  LIG   0.0519   0.0000 
26    O1      -1.2400  -35.9060   23.9770 O.2     1  LIG  -0.6361  -0.5700 
27    C13      2.3440  -38.7570   21.0360 C.3     1  LIG   0.1354   0.0690 
28    H10      3.1238  -38.3754   20.4296 H       1  LIG   0.0981   0.1000 
29    C14      2.9380  -39.8900   21.8010 C.3     1  LIG  -0.1181  -0.2000 
30    H11      3.8890  -40.1268   21.3997 H       1  LIG   0.0732   0.1000 
31    H12      3.0430  -39.6129   22.8177 H       1  LIG   0.0789   0.1000 
32    C15      1.6390  -40.0610   21.0880 C.3     1  LIG  -0.1196  -0.2000 
33    H13      0.6832  -39.9283   21.5242 H       1  LIG   0.0807   0.1000 
34    H14      1.5292  -40.4423   20.1061 H       1  LIG   0.0733   0.1000 
@<TRIPOS>BOND
1     2     1     ar
2     3     2     1
3     4     2     ar
4     5     4     1
5     6     4     ar
6     7     6     ar
7     8     7     1
8     9     8     1
9     10    8     1
10    11    10    1
11    12    11    ar
12    13    12    1
13    14    12    ar
14    15    14    1
15    16    14    ar
16    17    16    1
17    18    16    ar
18    19    11    ar
19    19    18    ar
20    20    19    1
21    21    1     ar
22    21    7     ar
23    21    20    1
24    22    6     1
25    23    22    1
26    24    22    1
27    25    22    1
28    26    10    2
29    27    20    1
30    28    27    1
31    29    27    1
32    30    29    1
33    31    29    1
34    32    27    1
35    32    29    1
36    33    32    1
37    34    32    1
@<TRIPOS>SUBSTRUCTURE
1   LIG    1    
 
########## Name        : 1VRT.lig
########## Description : AM1BCC_CHARGES =  -0.0002 ORIGINAL_CHARGES =  -0.0000

@<TRIPOS>MOLECULE
1VRT.lig
34    37    1     0     0    
SMALL
USER_CHARGES
@<TRIPOS>ATOM
1     N1       4.0540  -36.9310   22.2210 N.ar    1  LIG  -0.6650  -0.6200 
2     C1       4.9660  -36.2380   22.9390 C.ar    1  LIG   0.3947   0.1600 
3     H1       6.0082  -36.2811   22.6707 H       1  LIG   0.0281   0.1500 
4     C2       4.6240  -35.4500   24.0360 C.ar    1  LIG  -0.2334  -0.1500 
5     H2       5.3884  -34.9151   24.5740 H       1  LIG   0.1480   0.1500 
6     C3       3.3050  -35.3690   24.4150 C.ar    1  LIG  -0.0698  -0.1435 
7     C4       2.3460  -36.0770   23.6860 C.ar    1  LIG  -0.0398   0.1170 
8     N2       0.9890  -36.0280   24.1030 N.am    1  LIG  -0.4596  -0.5470 
9     H3       0.7643  -35.9928   25.0860 H       1  LIG   0.3311   0.3700 
10    C5      -0.1450  -36.0180   23.4080 C.2     1  LIG   0.7361   0.5438 
11    C6      -0.1190  -36.0770   21.8860 C.ar    1  LIG  -0.2550   0.0862 
12    C7      -1.1230  -35.3990   21.1890 C.ar    1  LIG  -0.0321  -0.1500 
13    H4      -1.7552  -34.6955   21.7041 H       1  LIG   0.1623   0.1500 
14    C8      -1.2960  -35.6300   19.8690 C.ar    1  LIG  -0.2723  -0.1500 
15    H5      -2.0662  -35.1073   19.3273 H       1  LIG   0.1522   0.1500 
16    C9      -0.4670  -36.5450   19.2400 C.ar    1  LIG   0.4373   0.1600 
17    H6      -0.5947  -36.7554   18.1915 H       1  LIG   0.0280   0.1500 
18    N3       0.5220  -37.2120   19.8740 N.ar    1  LIG  -0.6893  -0.6200 
19    C10      0.7040  -36.9790   21.1800 C.ar    1  LIG   0.6480   0.4100 
20    N4       1.7670  -37.6730   21.8260 N.pl3   1  LIG  -0.6924  -0.3690 
21    C11      2.7540  -36.8570   22.5840 C.ar    1  LIG   0.5805   0.4100 
22    C12      2.9040  -34.5090   25.6010 C.3     1  LIG  -0.0620   0.1435 
23    H7       2.2235  -33.7630   25.2820 H       1  LIG   0.0570   0.0000 
24    H8       2.4436  -35.1154   26.3371 H       1  LIG   0.0495   0.0000 
25    H9       3.7654  -34.0491   26.0108 H       1  LIG   0.0519   0.0000 
26    O1      -1.2400  -35.9060   23.9770 O.2     1  LIG  -0.6361  -0.5700 
27    C13      2.3440  -38.7570   21.0360 C.3     1  LIG   0.1354   0.0690 
28    H10      3.1238  -38.3754   20.4296 H       1  LIG   0.0981   0.1000 
29    C14      2.9380  -39.8900   21.8010 C.3     1  LIG  -0.1181  -0.2000 
30    H11      3.8890  -40.1268   21.3997 H       1  LIG   0.0732   0.1000 
31    H12      3.0430  -39.6129   22.8177 H       1  LIG   0.0789   0.1000 
32    C15      1.6390  -40.0610   21.0880 C.3     1  LIG  -0.1196  -0.2000 
33    H13      0.6832  -39.9283   21.5242 H       1  LIG   0.0807   0.1000 
34    H14      1.5292  -40.4423   20.1061 H       1  LIG   0.0733   0.1000 
@<TRIPOS>BOND
1     2     1     ar
2     3     2     1
3     4     2     ar
4     5     4     1
5     6     4     ar
6     7     6     ar
7     8     7     1
8     9     8     1
9     10    8     1
10    11    10    1
11    12    11    ar
12    13    12    1
13    14    12    ar
14    15    14    1
15    16    14    ar
16    17    16    1
17    18    16    ar
18    19    11    ar
19    19    18    ar
20    20    19    1
21    21    1     ar
22    21    7     ar
23    21    20    1
24    22    6     1
25    23    22    1
26    24    22    1
27    25    22    1
28    26    10    2
29    27    20    1
30    28    27    1
31    29    27    1
32    30    29    1
33    31    29    1
34    32    27    1
35    32    29    1
36    33    32    1
37    34    32    1
@<TRIPOS>SUBSTRUCTURE
1   LIG    1    
 
########## Name        : 1VRT.lig
########## Description : AM1BCC_CHARGES =  -0.0002 ORIGINAL_CHARGES =  -0.0000

@<TRIPOS>MOLECULE
1VRT.lig
34    37    1     0     0    
SMALL
USER_CHARGES
@<TRIPOS>ATOM
1     N1       4.0540  -36.9310   22.2210 N.ar    1  LIG  -0.6650  -0.6200 
2     C1       4.9660  -36.2380   22.9390 C.ar    1  LIG   0.3947   0.1600 
3     H1       6.0082  -36.2811   22.6707 H       1  LIG   0.0281   0.1500 
4     C2       4.6240  -35.4500   24.0360 C.ar    1  LIG  -0.2334  -0.1500 
5     H2       5.3884  -34.9151   24.5740 H       1  LIG   0.1480   0.1500 
6     C3       3.3050  -35.3690   24.4150 C.ar    1  LIG  -0.0698  -0.1435 
7     C4       2.3460  -36.0770   23.6860 C.ar    1  LIG  -0.0398   0.1170 
8     N2       0.9890  -36.0280   24.1030 N.am    1  LIG  -0.4596  -0.5470 
9     H3       0.7643  -35.9928   25.0860 H       1  LIG   0.3311   0.3700 
10    C5      -0.1450  -36.0180   23.4080 C.2     1  LIG   0.7361   0.5438 
11    C6      -0.1190  -36.0770   21.8860 C.ar    1  LIG  -0.2550   0.0862 
12    C7      -1.1230  -35.3990   21.1890 C.ar    1  LIG  -0.0321  -0.1500 
13    H4      -1.7552  -34.6955   21.7041 H       1  LIG   0.1623   0.1500 
14    C8      -1.2960  -35.6300   19.8690 C.ar    1  LIG  -0.2723  -0.1500 
15    H5      -2.0662  -35.1073   19.3273 H       1  LIG   0.1522   0.1500 
16    C9      -0.4670  -36.5450   19.2400 C.ar    1  LIG   0.4373   0.1600 
17    H6      -0.5947  -36.7554   18.1915 H       1  LIG   0.0280   0.1500 
18    N3       0.5220  -37.2120   19.8740 N.ar    1  LIG  -0.6893  -0.6200 
19    C10      0.7040  -36.9790   21.1800 C.ar    1  LIG   0.6480   0.4100 
20    N4       1.7670  -37.6730   21.8260 N.pl3   1  LIG  -0.6924  -0.3690 
21    C11      2.7540  -36.8570   22.5840 C.ar    1  LIG   0.5805   0.4100 
22    C12      2.9040  -34.5090   25.6010 C.3     1  LIG  -0.0620   0.1435 
23    H7       2.2235  -33.7630   25.2820 H       1  LIG   0.0570   0.0000 
24    H8       2.4436  -35.1154   26.3371 H       1  LIG   0.0495   0.0000 
25    H9       3.7654  -34.0491   26.0108 H       1  LIG   0.0519   0.0000 
26    O1      -1.2400  -35.9060   23.9770 O.2     1  LIG  -0.6361  -0.5700 
27    C13      2.3440  -38.7570   21.0360 C.3     1  LIG   0.1354   0.0690 
28    H10      3.1238  -38.3754   20.4296 H       1  LIG   0.0981   0.1000 
29    C14      2.9380  -39.8900   21.8010 C.3     1  LIG  -0.1181  -0.2000 
30    H11      3.8890  -40.1268   21.3997 H       1  LIG   0.0732   0.1000 
31    H12      3.0430  -39.6129   22.8177 H       1  LIG   0.0789   0.1000 
32    C15      1.6390  -40.0610   21.0880 C.3     1  LIG  -0.1196  -0.2000 
33    H13      0.6832  -39.9283   21.5242 H       1  LIG   0.0807   0.1000 
34    H14      1.5292  -40.4423   20.1061 H       1  LIG   0.0733   0.1000 
@<TRIPOS>BOND
1     2     1     ar
2     3     2     1
3     4     2     ar
4     5     4     1
5     6     4     ar
6     7     6     ar
7     8     7     1
8     9     8     1
9     10    8     1
10    11    10    1
11    12    11    ar
12    13    12    1
13    14    12    ar
14    15    14    1
15    16    14    ar
16    17    16    1
17    18    16    ar
18    19    11    ar
19    19    18    ar
20    20    19    1
21    21    1     ar
22    21    7     ar
23    21    20    1
24    22    6     1
25    23    22    1
26    24    22    1
27    25    22    1
28    26    10    2
29    27    20    1
30    28    27    1
31    29    27    1
32    30    29    1
33    31    29    1
34    32    27    1
35    32    29    1
36    33    32    1
37    34    32    1
@<TRIPOS>SUBSTRUCTURE
1   LIG    1    
 
########## Name        : 1VRT.lig
########## Description : AM1BCC_CHARGES =  -0.0002 ORIGINAL_CHARGES =  -0.0000

@<TRIPOS>MOLECULE
1VRT.lig
34    37    1     0     0    
SMALL
USER_CHARGES
@<TRIPOS>ATOM
1     N1       4.0540  -36.9310   22.2210 N.ar    1  LIG  -0.6650  -0.6200 
2     C1       4.9660  -36.2380   22.9390 C.ar    1  LIG   0.3947   0.1600 
3     H1       6.0082  -36.2811   22.6707 H       1  LIG   0.0281   0.1500 
4     C2       4.6240  -35.4500   24.0360 C.ar    1  LIG  -0.2334  -0.1500 
5     H2       5.3884  -34.9151   24.5740 H       1  LIG   0.1480   0.1500 
6     C3       3.3050  -35.3690   24.4150 C.ar    1  LIG  -0.0698  -0.1435 
7     C4       2.3460  -36.0770   23.6860 C.ar    1  LIG  -0.0398   0.1170 
8     N2       0.9890  -36.0280   24.1030 N.am    1  LIG  -0.4596  -0.5470 
9     H3       0.7643  -35.9928   25.0860 H       1  LIG   0.3311   0.3700 
10    C5      -0.1450  -36.0180   23.4080 C.2     1  LIG   0.7361   0.5438 
11    C6      -0.1190  -36.0770   21.8860 C.ar    1  LIG  -0.2550   0.0862 
12    C7      -1.1230  -35.3990   21.1890 C.ar    1  LIG  -0.0321  -0.1500 
13    H4      -1.7552  -34.6955   21.7041 H       1  LIG   0.1623   0.1500 
14    C8      -1.2960  -35.6300   19.8690 C.ar    1  LIG  -0.2723  -0.1500 
15    H5      -2.0662  -35.1073   19.3273 H       1  LIG   0.1522   0.1500 
16    C9      -0.4670  -36.5450   19.2400 C.ar    1  LIG   0.4373   0.1600 
17    H6      -0.5947  -36.7554   18.1915 H       1  LIG   0.0280   0.1500 
18    N3       0.5220  -37.2120   19.8740 N.ar    1  LIG  -0.6893  -0.6200 
19    C10      0.7040  -36.9790   21.1800 C.ar    1  LIG   0.6480   0.4100 
20    N4       1.7670  -37.6730   21.8260 N.pl3   1  LIG  -0.6924  -0.3690 
21    C11      2.7540  -36.8570   22.5840 C.ar    1  LIG   0.5805   0.4100 
22    C12      2.9040  -34.5090   25.6010 C.3     1  LIG  -0.0620   0.1435 
23    H7       2.2235  -33.7630   25.2820 H       1  LIG   0.0570   0.0000 
24    H8       2.4436  -35.1154   26.3371 H       1  LIG   0.0495   0.0000 
25    H9       3.7654  -34.0491   26.0108 H       1  LIG   0.0519   0.0000 
26    O1      -1.2400  -35.9060   23.9770 O.2     1  LIG  -0.6361  -0.5700 
27    C13      2.3440  -38.7570   21.0360 C.3     1  LIG   0.1354   0.0690 
28    H10      3.1238  -38.3754   20.4296 H       1  LIG   0.0981   0.1000 
29    C14      2.9380  -39.8900   21.8010 C.3     1  LIG  -0.1181  -0.2000 
30    H11      3.8890  -40.1268   21.3997 H       1  LIG   0.0732   0.1000 
31    H12      3.0430  -39.6129   22.8177 H       1  LIG   0.0789   0.1000 
32    C15      1.6390  -40.0610   21.0880 C.3     1  LIG  -0.1196  -0.2000 
33    H13      0.6832  -39.9283   21.5242 H       1  LIG   0.0807   0.1000 
34    H14      1.5292  -40.4423   20.1061 H       1  LIG   0.0733   0.1000 
@<TRIPOS>BOND
1     2     1     ar
2     3     2     1
3     4     2     ar
4     5     4     1
5     6     4     ar
6     7     6     ar
7     8     7     1
8     9     8     1
9     10    8     1
10    11    10    1
11    12    11    ar
12    13    12    1
13    14    12    ar
14    15    14    1
15    16    14    ar
16    17    16    1
17    18    16    ar
18    19    11    ar
19    19    18    ar
20    20    19    1
21    21    1     ar
22    21    7     ar
23    21    20    1
24    22    6     1
25    23    22    1
26    24    22    1
27    25    22    1
28    26    10    2
29    27    20    1
30    28    27    1
31    29    27    1
32    30    29    1
33    31    29    1
34    32    27    1
35    32    29    1
36    33    32    1
37    34    32    1
@<TRIPOS>SUBSTRUCTURE
1   LIG    1    
 
########## Name        : 1VRT.lig
########## Description : AM1BCC_CHARGES =  -0.0002 ORIGINAL_CHARGES =  -0.0000

@<TRIPOS>MOLECULE
1VRT.lig
34    37    1     0     0    
SMALL
USER_CHARGES
@<TRIPOS>ATOM
1     N1       4.0540  -36.9310   22.2210 N.ar    1  LIG  -0.6650  -0.6200 
2     C1       4.9660  -36.2380   22.9390 C.ar    1  LIG   0.3947   0.1600 
3     H1       6.0082  -36.2811   22.6707 H       1  LIG   0.0281   0.1500 
4     C2       4.6240  -35.4500   24.0360 C.ar    1  LIG  -0.2334  -0.1500 
5     H2       5.3884  -34.9151   24.5740 H       1  LIG   0.1480   0.1500 
6     C3       3.3050  -35.3690   24.4150 C.ar    1  LIG  -0.0698  -0.1435 
7     C4       2.3460  -36.0770   23.6860 C.ar    1  LIG  -0.0398   0.1170 
8     N2       0.9890  -36.0280   24.1030 N.am    1  LIG  -0.4596  -0.5470 
9     H3       0.7643  -35.9928   25.0860 H       1  LIG   0.3311   0.3700 
10    C5      -0.1450  -36.0180   23.4080 C.2     1  LIG   0.7361   0.5438 
11    C6      -0.1190  -36.0770   21.8860 C.ar    1  LIG  -0.2550   0.0862 
12    C7      -1.1230  -35.3990   21.1890 C.ar    1  LIG  -0.0321  -0.1500 
13    H4      -1.7552  -34.6955   21.7041 H       1  LIG   0.1623   0.1500 
14    C8      -1.2960  -35.6300   19.8690 C.ar    1  LIG  -0.2723  -0.1500 
15    H5      -2.0662  -35.1073   19.3273 H       1  LIG   0.1522   0.1500 
16    C9      -0.4670  -36.5450   19.2400 C.ar    1  LIG   0.4373   0.1600 
17    H6      -0.5947  -36.7554   18.1915 H       1  LIG   0.0280   0.1500 
18    N3       0.5220  -37.2120   19.8740 N.ar    1  LIG  -0.6893  -0.6200 
19    C10      0.7040  -36.9790   21.1800 C.ar    1  LIG   0.6480   0.4100 
20    N4       1.7670  -37.6730   21.8260 N.pl3   1  LIG  -0.6924  -0.3690 
21    C11      2.7540  -36.8570   22.5840 C.ar    1  LIG   0.5805   0.4100 
22    C12      2.9040  -34.5090   25.6010 C.3     1  LIG  -0.0620   0.1435 
23    H7       2.2235  -33.7630   25.2820 H       1  LIG   0.0570   0.0000 
24    H8       2.4436  -35.1154   26.3371 H       1  LIG   0.0495   0.0000 
25    H9       3.7654  -34.0491   26.0108 H       1  LIG   0.0519   0.0000 
26    O1      -1.2400  -35.9060   23.9770 O.2     1  LIG  -0.6361  -0.5700 
27    C13      2.3440  -38.7570   21.0360 C.3     1  LIG   0.1354   0.0690 
28    H10      3.1238  -38.3754   20.4296 H       1  LIG   0.0981   0.1000 
29    C14      2.9380  -39.8900   21.8010 C.3     1  LIG  -0.1181  -0.2000 
30    H11      3.8890  -40.1268   21.3997 H       1  LIG   0.0732   0.1000 
31    H12      3.0430  -39.6129   22.8177 H       1  LIG   0.0789   0.1000 
32    C15      1.6390  -40.0610   21.0880 C.3     1  LIG  -0.1196  -0.2000 
33    H13      0.6832  -39.9283   21.5242 H       1  LIG   0.0807   0.1000 
34    H14      1.5292  -40.4423   20.1061 H       1  LIG   0.0733   0.1000 
@<TRIPOS>BOND
1     2     1     ar
2     3     2     1
3     4     2     ar
4     5     4     1
5     6     4     ar
6     7     6     ar
7     8     7     1
8     9     8     1
9     10    8     1
10    11    10    1
11    12    11    ar
12    13    12    1
13    14    12    ar
14    15    14    1
15    16    14    ar
16    17    16    1
17    18    16    ar
18    19    11    ar
19    19    18    ar
20    20    19    1
21    21    1     ar
22    21    7     ar
23    21    20    1
24    22    6     1
25    23    22    1
26    24    22    1
27    25    22    1
28    26    10    2
29    27    20    1
30    28    27    1
31    29    27    1
32    30    29    1
33    31    29    1
34    32    27    1
35    32    29    1
36    33    32    1
37    34    32    1
@<TRIPOS>SUBSTRUCTURE
1   LIG    1    
 
########## Name        : 1VRT.lig
########## Description : AM1BCC_CHARGES =  -0.0002 ORIGINAL_CHARGES =  -0.0000

@<TRIPOS>MOLECULE
1VRT.lig
34    37    1     0     0    
SMALL
USER_CHARGES
@<TRIPOS>ATOM
1     N1       4.0540  -36.9310   22.2210 N.ar    1  LIG  -0.6650  -0.6200 
2     C1       4.9660  -36.2380   22.9390 C.ar    1  LIG   0.3947   0.1600 
3     H1       6.0082  -36.2811   22.6707 H       1  LIG   0.0281   0.1500 
4     C2       4.6240  -35.4500   24.0360 C.ar    1  LIG  -0.2334  -0.1500 
5     H2       5.3884  -34.9151   24.5740 H       1  LIG   0.1480   0.1500 
6     C3       3.3050  -35.3690   24.4150 C.ar    1  LIG  -0.0698  -0.1435 
7     C4       2.3460  -36.0770   23.6860 C.ar    1  LIG  -0.0398   0.1170 
8     N2       0.9890  -36.0280   24.1030 N.am    1  LIG  -0.4596  -0.5470 
9     H3       0.7643  -35.9928   25.0860 H       1  LIG   0.3311   0.3700 
10    C5      -0.1450  -36.0180   23.4080 C.2     1  LIG   0.7361   0.5438 
11    C6      -0.1190  -36.0770   21.8860 C.ar    1  LIG  -0.2550   0.0862 
12    C7      -1.1230  -35.3990   21.1890 C.ar    1  LIG  -0.0321  -0.1500 
13    H4      -1.7552  -34.6955   21.7041 H       1  LIG   0.1623   0.1500 
14    C8      -1.2960  -35.6300   19.8690 C.ar    1  LIG  -0.2723  -0.1500 
15    H5      -2.0662  -35.1073   19.3273 H       1  LIG   0.1522   0.1500 
16    C9      -0.4670  -36.5450   19.2400 C.ar    1  LIG   0.4373   0.1600 
17    H6      -0.5947  -36.7554   18.1915 H       1  LIG   0.0280   0.1500 
18    N3       0.5220  -37.2120   19.8740 N.ar    1  LIG  -0.6893  -0.6200 
19    C10      0.7040  -36.9790   21.1800 C.ar    1  LIG   0.6480   0.4100 
20    N4       1.7670  -37.6730   21.8260 N.pl3   1  LIG  -0.6924  -0.3690 
21    C11      2.7540  -36.8570   22.5840 C.ar    1  LIG   0.5805   0.4100 
22    C12      2.9040  -34.5090   25.6010 C.3     1  LIG  -0.0620   0.1435 
23    H7       2.2235  -33.7630   25.2820 H       1  LIG   0.0570   0.0000 
24    H8       2.4436  -35.1154   26.3371 H       1  LIG   0.0495   0.0000 
25    H9       3.7654  -34.0491   26.0108 H       1  LIG   0.0519   0.0000 
26    O1      -1.2400  -35.9060   23.9770 O.2     1  LIG  -0.6361  -0.5700 
27    C13      2.3440  -38.7570   21.0360 C.3     1  LIG   0.1354   0.0690 
28    H10      3.1238  -38.3754   20.4296 H       1  LIG   0.0981   0.1000 
29    C14      2.9380  -39.8900   21.8010 C.3     1  LIG  -0.1181  -0.2000 
30    H11      3.8890  -40.1268   21.3997 H       1  LIG   0.0732   0.1000 
31    H12      3.0430  -39.6129   22.8177 H       1  LIG   0.0789   0.1000 
32    C15      1.6390  -40.0610   21.0880 C.3     1  LIG  -0.1196  -0.2000 
33    H13      0.6832  -39.9283   21.5242 H       1  LIG   0.0807   0.1000 
34    H14      1.5292  -40.4423   20.1061 H       1  LIG   0.0733   0.1000 
@<TRIPOS>BOND
1     2     1     ar
2     3     2     1
3     4     2     ar
4     5     4     1
5     6     4     ar
6     7     6     ar
7     8     7     1
8     9     8     1
9     10    8     1
10    11    10    1
11    12    11    ar
12    13    12    1
13    14    12    ar
14    15    14    1
15    16    14    ar
16    17    16    1
17    18    16    ar
18    19    11    ar
19    19    18    ar
20    20    19    1
21    21    1     ar
22    21    7     ar
23    21    20    1
24    22    6     1
25    23    22    1
26    24    22    1
27    25    22    1
28    26    10    2
29    27    20    1
30    28    27    1
31    29    27    1
32    30    29    1
33    31    29    1
34    32    27    1
35    32    29    1
36    33    32    1
37    34    32    1
@<TRIPOS>SUBSTRUCTURE
1   LIG    1    
 
########## Name        : 1VRT.lig
########## Description : AM1BCC_CHARGES =  -0.0002 ORIGINAL_CHARGES =  -0.0000

@<TRIPOS>MOLECULE
1VRT.lig
34    37    1     0     0    
SMALL
USER_CHARGES
@<TRIPOS>ATOM
1     N1       4.0540  -36.9310   22.2210 N.ar    1  LIG  -0.6650  -0.6200 
2     C1       4.9660  -36.2380   22.9390 C.ar    1  LIG   0.3947   0.1600 
3     H1       6.0082  -36.2811   22.6707 H       1  LIG   0.0281   0.1500 
4     C2       4.6240  -35.4500   24.0360 C.ar    1  LIG  -0.2334  -0.1500 
5     H2       5.3884  -34.9151   24.5740 H       1  LIG   0.1480   0.1500 
6     C3       3.3050  -35.3690   24.4150 C.ar    1  LIG  -0.0698  -0.1435 
7     C4       2.3460  -36.0770   23.6860 C.ar    1  LIG  -0.0398   0.1170 
8     N2       0.9890  -36.0280   24.1030 N.am    1  LIG  -0.4596  -0.5470 
9     H3       0.7643  -35.9928   25.0860 H       1  LIG   0.3311   0.3700 
10    C5      -0.1450  -36.0180   23.4080 C.2     1  LIG   0.7361   0.5438 
11    C6      -0.1190  -36.0770   21.8860 C.ar    1  LIG  -0.2550   0.0862 
12    C7      -1.1230  -35.3990   21.1890 C.ar    1  LIG  -0.0321  -0.1500 
13    H4      -1.7552  -34.6955   21.7041 H       1  LIG   0.1623   0.1500 
14    C8      -1.2960  -35.6300   19.8690 C.ar    1  LIG  -0.2723  -0.1500 
15    H5      -2.0662  -35.1073   19.3273 H       1  LIG   0.1522   0.1500 
16    C9      -0.4670  -36.5450   19.2400 C.ar    1  LIG   0.4373   0.1600 
17    H6      -0.5947  -36.7554   18.1915 H       1  LIG   0.0280   0.1500 
18    N3       0.5220  -37.2120   19.8740 N.ar    1  LIG  -0.6893  -0.6200 
19    C10      0.7040  -36.9790   21.1800 C.ar    1  LIG   0.6480   0.4100 
20    N4       1.7670  -37.6730   21.8260 N.pl3   1  LIG  -0.6924  -0.3690 
21    C11      2.7540  -36.8570   22.5840 C.ar    1  LIG   0.5805   0.4100 
22    C12      2.9040  -34.5090   25.6010 C.3     1  LIG  -0.0620   0.1435 
23    H7       2.2235  -33.7630   25.2820 H       1  LIG   0.0570   0.0000 
24    H8       2.4436  -35.1154   26.3371 H       1  LIG   0.0495   0.0000 
25    H9       3.7654  -34.0491   26.0108 H       1  LIG   0.0519   0.0000 
26    O1      -1.2400  -35.9060   23.9770 O.2     1  LIG  -0.6361  -0.5700 
27    C13      2.3440  -38.7570   21.0360 C.3     1  LIG   0.1354   0.0690 
28    H10      3.1238  -38.3754   20.4296 H       1  LIG   0.0981   0.1000 
29    C14      2.9380  -39.8900   21.8010 C.3     1  LIG  -0.1181  -0.2000 
30    H11      3.8890  -40.1268   21.3997 H       1  LIG   0.0732   0.1000 
31    H12      3.0430  -39.6129   22.8177 H       1  LIG   0.0789   0.1000 
32    C15      1.6390  -40.0610   21.0880 C.3     1  LIG  -0.1196  -0.2000 
33    H13      0.6832  -39.9283   21.5242 H       1  LIG   0.0807   0.1000 
34    H14      1.5292  -40.4423   20.1061 H       1  LIG   0.0733   0.1000 
@<TRIPOS>BOND
1     2     1     ar
2     3     2     1
3     4     2     ar
4     5     4     1
5     6     4     ar
6     7     6     ar
7     8     7     1
8     9     8     1
9     10    8     1
10    11    10    1
11    12    11    ar
12    13    12    1
13    14    12    ar
14    15    14    1
15    16    14    ar
16    17    16    1
17    18    16    ar
18    19    11    ar
19    19    18    ar
20    20    19    1
21    21    1     ar
22    21    7     ar
23    21    20    1
24    22    6     1
25    23    22    1
26    24    22    1
27    25    22    1
28    26    10    2
29    27    20    1
30    28    27    1
31    29    27    1
32    30    29    1
33    31    29    1
34    32    27    1
35    32    29    1
36    33    32    1
37    34    32    1
@<TRIPOS>SUBSTRUCTURE
1   LIG    1    
 
########## Name        : 1VRT.lig
########## Description : AM1BCC_CHARGES =  -0.0002 ORIGINAL_CHARGES =  -0.0000

@<TRIPOS>MOLECULE
1VRT.lig
34    37    1     0     0    
SMALL
USER_CHARGES
@<TRIPOS>ATOM
1     N1       4.0540  -36.9310   22.2210 N.ar    1  LIG  -0.6650  -0.6200 
2     C1       4.9660  -36.2380   22.9390 C.ar    1  LIG   0.3947   0.1600 
3     H1       6.0082  -36.2811   22.6707 H       1  LIG   0.0281   0.1500 
4     C2       4.6240  -35.4500   24.0360 C.ar    1  LIG  -0.2334  -0.1500 
5     H2       5.3884  -34.9151   24.5740 H       1  LIG   0.1480   0.1500 
6     C3       3.3050  -35.3690   24.4150 C.ar    1  LIG  -0.0698  -0.1435 
7     C4       2.3460  -36.0770   23.6860 C.ar    1  LIG  -0.0398   0.1170 
8     N2       0.9890  -36.0280   24.1030 N.am    1  LIG  -0.4596  -0.5470 
9     H3       0.7643  -35.9928   25.0860 H       1  LIG   0.3311   0.3700 
10    C5      -0.1450  -36.0180   23.4080 C.2     1  LIG   0.7361   0.5438 
11    C6      -0.1190  -36.0770   21.8860 C.ar    1  LIG  -0.2550   0.0862 
12    C7      -1.1230  -35.3990   21.1890 C.ar    1  LIG  -0.0321  -0.1500 
13    H4      -1.7552  -34.6955   21.7041 H       1  LIG   0.1623   0.1500 
14    C8      -1.2960  -35.6300   19.8690 C.ar    1  LIG  -0.2723  -0.1500 
15    H5      -2.0662  -35.1073   19.3273 H       1  LIG   0.1522   0.1500 
16    C9      -0.4670  -36.5450   19.2400 C.ar    1  LIG   0.4373   0.1600 
17    H6      -0.5947  -36.7554   18.1915 H       1  LIG   0.0280   0.1500 
18    N3       0.5220  -37.2120   19.8740 N.ar    1  LIG  -0.6893  -0.6200 
19    C10      0.7040  -36.9790   21.1800 C.ar    1  LIG   0.6480   0.4100 
20    N4       1.7670  -37.6730   21.8260 N.pl3   1  LIG  -0.6924  -0.3690 
21    C11      2.7540  -36.8570   22.5840 C.ar    1  LIG   0.5805   0.4100 
22    C12      2.9040  -34.5090   25.6010 C.3     1  LIG  -0.0620   0.1435 
23    H7       2.2235  -33.7630   25.2820 H       1  LIG   0.0570   0.0000 
24    H8       2.4436  -35.1154   26.3371 H       1  LIG   0.0495   0.0000 
25    H9       3.7654  -34.0491   26.0108 H       1  LIG   0.0519   0.0000 
26    O1      -1.2400  -35.9060   23.9770 O.2     1  LIG  -0.6361  -0.5700 
27    C13      2.3440  -38.7570   21.0360 C.3     1  LIG   0.1354   0.0690 
28    H10      3.1238  -38.3754   20.4296 H       1  LIG   0.0981   0.1000 
29    C14      2.9380  -39.8900   21.8010 C.3     1  LIG  -0.1181  -0.2000 
30    H11      3.8890  -40.1268   21.3997 H       1  LIG   0.0732   0.1000 
31    H12      3.0430  -39.6129   22.8177 H       1  LIG   0.0789   0.1000 
32    C15      1.6390  -40.0610   21.0880 C.3     1  LIG  -0.1196  -0.2000 
33    H13      0.6832  -39.9283   21.5242 H       1  LIG   0.0807   0.1000 
34    H14      1.5292  -40.4423   20.1061 H       1  LIG   0.0733   0.1000 
@<TRIPOS>BOND
1     2     1     ar
2     3     2     1
3     4     2     ar
4     5     4     1
5     6     4     ar
6     7     6     ar
7     8     7     1
8     9     8     1
9     10    8     1
10    11    10    1
11    12    11    ar
12    13    12    1
13    14    12    ar
14    15    14    1
15    16    14    ar
16    17    16    1
17    18    16    ar
18    19    11    ar
19    19    18    ar
20    20    19    1
21    21    1     ar
22    21    7     ar
23    21    20    1
24    22    6     1
25    23    22    1
26    24    22    1
27    25    22    1
28    26    10    2
29    27    20    1
30    28    27    1
31    29    27    1
32    30    29    1
33    31    29    1
34    32    27    1
35    32    29    1
36    33    32    1
37    34    32    1
@<TRIPOS>SUBSTRUCTURE
1   LIG    1    
 
########## Name        : 1VRT.lig
########## Description : AM1BCC_CHARGES =  -0.0002 ORIGINAL_CHARGES =  -0.0000

@<TRIPOS>MOLECULE
1VRT.lig
34    37    1     0     0    
SMALL
USER_CHARGES
@<TRIPOS>ATOM
1     N1       4.0540  -36.9310   22.2210 N.ar    1  LIG  -0.6650  -0.6200 
2     C1       4.9660  -36.2380   22.9390 C.ar    1  LIG   0.3947   0.1600 
3     H1       6.0082  -36.2811   22.6707 H       1  LIG   0.0281   0.1500 
4     C2       4.6240  -35.4500   24.0360 C.ar    1  LIG  -0.2334  -0.1500 
5     H2       5.3884  -34.9151   24.5740 H       1  LIG   0.1480   0.1500 
6     C3       3.3050  -35.3690   24.4150 C.ar    1  LIG  -0.0698  -0.1435 
7     C4       2.3460  -36.0770   23.6860 C.ar    1  LIG  -0.0398   0.1170 
8     N2       0.9890  -36.0280   24.1030 N.am    1  LIG  -0.4596  -0.5470 
9     H3       0.7643  -35.9928   25.0860 H       1  LIG   0.3311   0.3700 
10    C5      -0.1450  -36.0180   23.4080 C.2     1  LIG   0.7361   0.5438 
11    C6      -0.1190  -36.0770   21.8860 C.ar    1  LIG  -0.2550   0.0862 
12    C7      -1.1230  -35.3990   21.1890 C.ar    1  LIG  -0.0321  -0.1500 
13    H4      -1.7552  -34.6955   21.7041 H       1  LIG   0.1623   0.1500 
14    C8      -1.2960  -35.6300   19.8690 C.ar    1  LIG  -0.2723  -0.1500 
15    H5      -2.0662  -35.1073   19.3273 H       1  LIG   0.1522   0.1500 
16    C9      -0.4670  -36.5450   19.2400 C.ar    1  LIG   0.4373   0.1600 
17    H6      -0.5947  -36.7554   18.1915 H       1  LIG   0.0280   0.1500 
18    N3       0.5220  -37.2120   19.8740 N.ar    1  LIG  -0.6893  -0.6200 
19    C10      0.7040  -36.9790   21.1800 C.ar    1  LIG   0.6480   0.4100 
20    N4       1.7670  -37.6730   21.8260 N.pl3   1  LIG  -0.6924  -0.3690 
21    C11      2.7540  -36.8570   22.5840 C.ar    1  LIG   0.5805   0.4100 
22    C12      2.9040  -34.5090   25.6010 C.3     1  LIG  -0.0620   0.1435 
23    H7       2.2235  -33.7630   25.2820 H       1  LIG   0.0570   0.0000 
24    H8       2.4436  -35.1154   26.3371 H       1  LIG   0.0495   0.0000 
25    H9       3.7654  -34.0491   26.0108 H       1  LIG   0.0519   0.0000 
26    O1      -1.2400  -35.9060   23.9770 O.2     1  LIG  -0.6361  -0.5700 
27    C13      2.3440  -38.7570   21.0360 C.3     1  LIG   0.1354   0.0690 
28    H10      3.1238  -38.3754   20.4296 H       1  LIG   0.0981   0.1000 
29    C14      2.9380  -39.8900   21.8010 C.3     1  LIG  -0.1181  -0.2000 
30    H11      3.8890  -40.1268   21.3997 H       1  LIG   0.0732   0.1000 
31    H12      3.0430  -39.6129   22.8177 H       1  LIG   0.0789   0.1000 
32    C15      1.6390  -40.0610   21.0880 C.3     1  LIG  -0.1196  -0.2000 
33    H13      0.6832  -39.9283   21.5242 H       1  LIG   0.0807   0.1000 
34    H14      1.5292  -40.4423   20.1061 H       1  LIG   0.0733   0.1000 
@<TRIPOS>BOND
1     2     1     ar
2     3     2     1
3     4     2     ar
4     5     4     1
5     6     4     ar
6     7     6     ar
7     8     7     1
8     9     8     1
9     10    8     1
10    11    10    1
11    12    11    ar
12    13    12    1
13    14    12    ar
14    15    14    1
15    16    14    ar
16    17    16    1
17    18    16    ar
18    19    11    ar
19    19    18    ar
20    20    19    1
21    21    1     ar
22    21    7     ar
23    21    20    1
24    22    6     1
25    23    22    1
26    24    22    1
27    25    22    1
28    26    10    2
29    27    20    1
30    28    27    1
31    29    27    1
32    30    29    1
33    31    29    1
34    32    27    1
35    32    29    1
36    33    32    1
37    34    32    1
@<TRIPOS>SUBSTRUCTURE
1   LIG    1    
 
########## Name        : 1VRT.lig
########## Description : AM1BCC_CHARGES =  -0.0002 ORIGINAL_CHARGES =  -0.0000

@<TRIPOS>MOLECULE
1VRT.lig
34    37    1     0     0    
SMALL
USER_CHARGES
@<TRIPOS>ATOM
1     N1       4.0540  -36.9310   22.2210 N.ar    1  LIG  -0.6650  -0.6200 
2     C1       4.9660  -36.2380   22.9390 C.ar    1  LIG   0.3947   0.1600 
3     H1       6.0082  -36.2811   22.6707 H       1  LIG   0.0281   0.1500 
4     C2       4.6240  -35.4500   24.0360 C.ar    1  LIG  -0.2334  -0.1500 
5     H2       5.3884  -34.9151   24.5740 H       1  LIG   0.1480   0.1500 
6     C3       3.3050  -35.3690   24.4150 C.ar    1  LIG  -0.0698  -0.1435 
7     C4       2.3460  -36.0770   23.6860 C.ar    1  LIG  -0.0398   0.1170 
8     N2       0.9890  -36.0280   24.1030 N.am    1  LIG  -0.4596  -0.5470 
9     H3       0.7643  -35.9928   25.0860 H       1  LIG   0.3311   0.3700 
10    C5      -0.1450  -36.0180   23.4080 C.2     1  LIG   0.7361   0.5438 
11    C6      -0.1190  -36.0770   21.8860 C.ar    1  LIG  -0.2550   0.0862 
12    C7      -1.1230  -35.3990   21.1890 C.ar    1  LIG  -0.0321  -0.1500 
13    H4      -1.7552  -34.6955   21.7041 H       1  LIG   0.1623   0.1500 
14    C8      -1.2960  -35.6300   19.8690 C.ar    1  LIG  -0.2723  -0.1500 
15    H5      -2.0662  -35.1073   19.3273 H       1  LIG   0.1522   0.1500 
16    C9      -0.4670  -36.5450   19.2400 C.ar    1  LIG   0.4373   0.1600 
17    H6      -0.5947  -36.7554   18.1915 H       1  LIG   0.0280   0.1500 
18    N3       0.5220  -37.2120   19.8740 N.ar    1  LIG  -0.6893  -0.6200 
19    C10      0.7040  -36.9790   21.1800 C.ar    1  LIG   0.6480   0.4100 
20    N4       1.7670  -37.6730   21.8260 N.pl3   1  LIG  -0.6924  -0.3690 
21    C11      2.7540  -36.8570   22.5840 C.ar    1  LIG   0.5805   0.4100 
22    C12      2.9040  -34.5090   25.6010 C.3     1  LIG  -0.0620   0.1435 
23    H7       2.2235  -33.7630   25.2820 H       1  LIG   0.0570   0.0000 
24    H8       2.4436  -35.1154   26.3371 H       1  LIG   0.0495   0.0000 
25    H9       3.7654  -34.0491   26.0108 H       1  LIG   0.0519   0.0000 
26    O1      -1.2400  -35.9060   23.9770 O.2     1  LIG  -0.6361  -0.5700 
27    C13      2.3440  -38.7570   21.0360 C.3     1  LIG   0.1354   0.0690 
28    H10      3.1238  -38.3754   20.4296 H       1  LIG   0.0981   0.1000 
29    C14      2.9380  -39.8900   21.8010 C.3     1  LIG  -0.1181  -0.2000 
30    H11      3.8890  -40.1268   21.3997 H       1  LIG   0.0732   0.1000 
31    H12      3.0430  -39.6129   22.8177 H       1  LIG   0.0789   0.1000 
32    C15      1.6390  -40.0610   21.0880 C.3     1  LIG  -0.1196  -0.2000 
33    H13      0.6832  -39.9283   21.5242 H       1  LIG   0.0807   0.1000 
34    H14      1.5292  -40.4423   20.1061 H       1  LIG   0.0733   0.1000 
@<TRIPOS>BOND
1     2     1     ar
2     3     2     1
3     4     2     ar
4     5     4     1
5     6     4     ar
6     7     6     ar
7     8     7     1
8     9     8     1
9     10    8     1
10    11    10    1
11    12    11    ar
12    13    12    1
13    14    12    ar
14    15    14    1
15    16    14    ar
16    17    16    1
17    18    16    ar
18    19    11    ar
19    19    18    ar
20    20    19    1
21    21    1     ar
22    21    7     ar
23    21    20    1
24    22    6     1
25    23    22    1
26    24    22    1
27    25    22    1
28    26    10    2
29    27    20    1
30    28    27    1
31    29    27    1
32    30    29    1
33    31    29    1
34    32    27    1
35    32    29    1
36    33    32    1
37    34    32    1
@<TRIPOS>SUBSTRUCTURE
1   LIG    1    
 
########## Name        : 1VRT.lig
########## Description : AM1BCC_CHARGES =  -0.0002 ORIGINAL_CHARGES =  -0.0000

@<TRIPOS>MOLECULE
1VRT.lig
34    37    1     0     0    
SMALL
USER_CHARGES
@<TRIPOS>ATOM
1     N1       4.0540  -36.9310   22.2210 N.ar    1  LIG  -0.6650  -0.6200 
2     C1       4.9660  -36.2380   22.9390 C.ar    1  LIG   0.3947   0.1600 
3     H1       6.0082  -36.2811   22.6707 H       1  LIG   0.0281   0.1500 
4     C2       4.6240  -35.4500   24.0360 C.ar    1  LIG  -0.2334  -0.1500 
5     H2       5.3884  -34.9151   24.5740 H       1  LIG   0.1480   0.1500 
6     C3       3.3050  -35.3690   24.4150 C.ar    1  LIG  -0.0698  -0.1435 
7     C4       2.3460  -36.0770   23.6860 C.ar    1  LIG  -0.0398   0.1170 
8     N2       0.9890  -36.0280   24.1030 N.am    1  LIG  -0.4596  -0.5470 
9     H3       0.7643  -35.9928   25.0860 H       1  LIG   0.3311   0.3700 
10    C5      -0.1450  -36.0180   23.4080 C.2     1  LIG   0.7361   0.5438 
11    C6      -0.1190  -36.0770   21.8860 C.ar    1  LIG  -0.2550   0.0862 
12    C7      -1.1230  -35.3990   21.1890 C.ar    1  LIG  -0.0321  -0.1500 
13    H4      -1.7552  -34.6955   21.7041 H       1  LIG   0.1623   0.1500 
14    C8      -1.2960  -35.6300   19.8690 C.ar    1  LIG  -0.2723  -0.1500 
15    H5      -2.0662  -35.1073   19.3273 H       1  LIG   0.1522   0.1500 
16    C9      -0.4670  -36.5450   19.2400 C.ar    1  LIG   0.4373   0.1600 
17    H6      -0.5947  -36.7554   18.1915 H       1  LIG   0.0280   0.1500 
18    N3       0.5220  -37.2120   19.8740 N.ar    1  LIG  -0.6893  -0.6200 
19    C10      0.7040  -36.9790   21.1800 C.ar    1  LIG   0.6480   0.4100 
20    N4       1.7670  -37.6730   21.8260 N.pl3   1  LIG  -0.6924  -0.3690 
21    C11      2.7540  -36.8570   22.5840 C.ar    1  LIG   0.5805   0.4100 
22    C12      2.9040  -34.5090   25.6010 C.3     1  LIG  -0.0620   0.1435 
23    H7       2.2235  -33.7630   25.2820 H       1  LIG   0.0570   0.0000 
24    H8       2.4436  -35.1154   26.3371 H       1  LIG   0.0495   0.0000 
25    H9       3.7654  -34.0491   26.0108 H       1  LIG   0.0519   0.0000 
26    O1      -1.2400  -35.9060   23.9770 O.2     1  LIG  -0.6361  -0.5700 
27    C13      2.3440  -38.7570   21.0360 C.3     1  LIG   0.1354   0.0690 
28    H10      3.1238  -38.3754   20.4296 H       1  LIG   0.0981   0.1000 
29    C14      2.9380  -39.8900   21.8010 C.3     1  LIG  -0.1181  -0.2000 
30    H11      3.8890  -40.1268   21.3997 H       1  LIG   0.0732   0.1000 
31    H12      3.0430  -39.6129   22.8177 H       1  LIG   0.0789   0.1000 
32    C15      1.6390  -40.0610   21.0880 C.3     1  LIG  -0.1196  -0.2000 
33    H13      0.6832  -39.9283   21.5242 H       1  LIG   0.0807   0.1000 
34    H14      1.5292  -40.4423   20.1061 H       1  LIG   0.0733   0.1000 
@<TRIPOS>BOND
1     2     1     ar
2     3     2     1
3     4     2     ar
4     5     4     1
5     6     4     ar
6     7     6     ar
7     8     7     1
8     9     8     1
9     10    8     1
10    11    10    1
11    12    11    ar
12    13    12    1
13    14    12    ar
14    15    14    1
15    16    14    ar
16    17    16    1
17    18    16    ar
18    19    11    ar
19    19    18    ar
20    20    19    1
21    21    1     ar
22    21    7     ar
23    21    20    1
24    22    6     1
25    23    22    1
26    24    22    1
27    25    22    1
28    26    10    2
29    27    20    1
30    28    27    1
31    29    27    1
32    30    29    1
33    31    29    1
34    32    27    1
35    32    29    1
36    33    32    1
37    34    32    1
@<TRIPOS>SUBSTRUCTURE
1   LIG    1    
 
########## Name        : 1VRT.lig
########## Description : AM1BCC_CHARGES =  -0.0002 ORIGINAL_CHARGES =  -0.0000

@<TRIPOS>MOLECULE
1VRT.lig
34    37    1     0     0    
SMALL
USER_CHARGES
@<TRIPOS>ATOM
1     N1       4.0540  -36.9310   22.2210 N.ar    1  LIG  -0.6650  -0.6200 
2     C1       4.9660  -36.2380   22.9390 C.ar    1  LIG   0.3947   0.1600 
3     H1       6.0082  -36.2811   22.6707 H       1  LIG   0.0281   0.1500 
4     C2       4.6240  -35.4500   24.0360 C.ar    1  LIG  -0.2334  -0.1500 
5     H2       5.3884  -34.9151   24.5740 H       1  LIG   0.1480   0.1500 
6     C3       3.3050  -35.3690   24.4150 C.ar    1  LIG  -0.0698  -0.1435 
7     C4       2.3460  -36.0770   23.6860 C.ar    1  LIG  -0.0398   0.1170 
8     N2       0.9890  -36.0280   24.1030 N.am    1  LIG  -0.4596  -0.5470 
9     H3       0.7643  -35.9928   25.0860 H       1  LIG   0.3311   0.3700 
10    C5      -0.1450  -36.0180   23.4080 C.2     1  LIG   0.7361   0.5438 
11    C6      -0.1190  -36.0770   21.8860 C.ar    1  LIG  -0.2550   0.0862 
12    C7      -1.1230  -35.3990   21.1890 C.ar    1  LIG  -0.0321  -0.1500 
13    H4      -1.7552  -34.6955   21.7041 H       1  LIG   0.1623   0.1500 
14    C8      -1.2960  -35.6300   19.8690 C.ar    1  LIG  -0.2723  -0.1500 
15    H5      -2.0662  -35.1073   19.3273 H       1  LIG   0.1522   0.1500 
16    C9      -0.4670  -36.5450   19.2400 C.ar    1  LIG   0.4373   0.1600 
17    H6      -0.5947  -36.7554   18.1915 H       1  LIG   0.0280   0.1500 
18    N3       0.5220  -37.2120   19.8740 N.ar    1  LIG  -0.6893  -0.6200 
19    C10      0.7040  -36.9790   21.1800 C.ar    1  LIG   0.6480   0.4100 
20    N4       1.7670  -37.6730   21.8260 N.pl3   1  LIG  -0.6924  -0.3690 
21    C11      2.7540  -36.8570   22.5840 C.ar    1  LIG   0.5805   0.4100 
22    C12      2.9040  -34.5090   25.6010 C.3     1  LIG  -0.0620   0.1435 
23    H7       2.2235  -33.7630   25.2820 H       1  LIG   0.0570   0.0000 
24    H8       2.4436  -35.1154   26.3371 H       1  LIG   0.0495   0.0000 
25    H9       3.7654  -34.0491   26.0108 H       1  LIG   0.0519   0.0000 
26    O1      -1.2400  -35.9060   23.9770 O.2     1  LIG  -0.6361  -0.5700 
27    C13      2.3440  -38.7570   21.0360 C.3     1  LIG   0.1354   0.0690 
28    H10      3.1238  -38.3754   20.4296 H       1  LIG   0.0981   0.1000 
29    C14      2.9380  -39.8900   21.8010 C.3     1  LIG  -0.1181  -0.2000 
30    H11      3.8890  -40.1268   21.3997 H       1  LIG   0.0732   0.1000 
31    H12      3.0430  -39.6129   22.8177 H       1  LIG   0.0789   0.1000 
32    C15      1.6390  -40.0610   21.0880 C.3     1  LIG  -0.1196  -0.2000 
33    H13      0.6832  -39.9283   21.5242 H       1  LIG   0.0807   0.1000 
34    H14      1.5292  -40.4423   20.1061 H       1  LIG   0.0733   0.1000 
@<TRIPOS>BOND
1     2     1     ar
2     3     2     1
3     4     2     ar
4     5     4     1
5     6     4     ar
6     7     6     ar
7     8     7     1
8     9     8     1
9     10    8     1
10    11    10    1
11    12    11    ar
12    13    12    1
13    14    12    ar
14    15    14    1
15    16    14    ar
16    17    16    1
17    18    16    ar
18    19    11    ar
19    19    18    ar
20    20    19    1
21    21    1     ar
22    21    7     ar
23    21    20    1
24    22    6     1
25    23    22    1
26    24    22    1
27    25    22    1
28    26    10    2
29    27    20    1
30    28    27    1
31    29    27    1
32    30    29    1
33    31    29    1
34    32    27    1
35    32    29    1
36    33    32    1
37    34    32    1
@<TRIPOS>SUBSTRUCTURE
1   LIG    1    
 
########## Name        : 1VRT.lig
########## Description : AM1BCC_CHARGES =  -0.0002 ORIGINAL_CHARGES =  -0.0000

@<TRIPOS>MOLECULE
1VRT.lig
34    37    1     0     0    
SMALL
USER_CHARGES
@<TRIPOS>ATOM
1     N1       4.0540  -36.9310   22.2210 N.ar    1  LIG  -0.6650  -0.6200 
2     C1       4.9660  -36.2380   22.9390 C.ar    1  LIG   0.3947   0.1600 
3     H1       6.0082  -36.2811   22.6707 H       1  LIG   0.0281   0.1500 
4     C2       4.6240  -35.4500   24.0360 C.ar    1  LIG  -0.2334  -0.1500 
5     H2       5.3884  -34.9151   24.5740 H       1  LIG   0.1480   0.1500 
6     C3       3.3050  -35.3690   24.4150 C.ar    1  LIG  -0.0698  -0.1435 
7     C4       2.3460  -36.0770   23.6860 C.ar    1  LIG  -0.0398   0.1170 
8     N2       0.9890  -36.0280   24.1030 N.am    1  LIG  -0.4596  -0.5470 
9     H3       0.7643  -35.9928   25.0860 H       1  LIG   0.3311   0.3700 
10    C5      -0.1450  -36.0180   23.4080 C.2     1  LIG   0.7361   0.5438 
11    C6      -0.1190  -36.0770   21.8860 C.ar    1  LIG  -0.2550   0.0862 
12    C7      -1.1230  -35.3990   21.1890 C.ar    1  LIG  -0.0321  -0.1500 
13    H4      -1.7552  -34.6955   21.7041 H       1  LIG   0.1623   0.1500 
14    C8      -1.2960  -35.6300   19.8690 C.ar    1  LIG  -0.2723  -0.1500 
15    H5      -2.0662  -35.1073   19.3273 H       1  LIG   0.1522   0.1500 
16    C9      -0.4670  -36.5450   19.2400 C.ar    1  LIG   0.4373   0.1600 
17    H6      -0.5947  -36.7554   18.1915 H       1  LIG   0.0280   0.1500 
18    N3       0.5220  -37.2120   19.8740 N.ar    1  LIG  -0.6893  -0.6200 
19    C10      0.7040  -36.9790   21.1800 C.ar    1  LIG   0.6480   0.4100 
20    N4       1.7670  -37.6730   21.8260 N.pl3   1  LIG  -0.6924  -0.3690 
21    C11      2.7540  -36.8570   22.5840 C.ar    1  LIG   0.5805   0.4100 
22    C12      2.9040  -34.5090   25.6010 C.3     1  LIG  -0.0620   0.1435 
23    H7       2.2235  -33.7630   25.2820 H       1  LIG   0.0570   0.0000 
24    H8       2.4436  -35.1154   26.3371 H       1  LIG   0.0495   0.0000 
25    H9       3.7654  -34.0491   26.0108 H       1  LIG   0.0519   0.0000 
26    O1      -1.2400  -35.9060   23.9770 O.2     1  LIG  -0.6361  -0.5700 
27    C13      2.3440  -38.7570   21.0360 C.3     1  LIG   0.1354   0.0690 
28    H10      3.1238  -38.3754   20.4296 H       1  LIG   0.0981   0.1000 
29    C14      2.9380  -39.8900   21.8010 C.3     1  LIG  -0.1181  -0.2000 
30    H11      3.8890  -40.1268   21.3997 H       1  LIG   0.0732   0.1000 
31    H12      3.0430  -39.6129   22.8177 H       1  LIG   0.0789   0.1000 
32    C15      1.6390  -40.0610   21.0880 C.3     1  LIG  -0.1196  -0.2000 
33    H13      0.6832  -39.9283   21.5242 H       1  LIG   0.0807   0.1000 
34    H14      1.5292  -40.4423   20.1061 H       1  LIG   0.0733   0.1000 
@<TRIPOS>BOND
1     2     1     ar
2     3     2     1
3     4     2     ar
4     5     4     1
5     6     4     ar
6     7     6     ar
7     8     7     1
8     9     8     1
9     10    8     1
10    11    10    1
11    12    11    ar
12    13    12    1
13    14    12    ar
14    15    14    1
15    16    14    ar
16    17    16    1
17    18    16    ar
18    19    11    ar
19    19    18    ar
20    20    19    1
21    21    1     ar
22    21    7     ar
23    21    20    1
24    22    6     1
25    23    22    1
26    24    22    1
27    25    22    1
28    26    10    2
29    27    20    1
30    28    27    1
31    29    27    1
32    30    29    1
33    31    29    1
34    32    27    1
35    32    29    1
36    33    32    1
37    34    32    1
@<TRIPOS>SUBSTRUCTURE
1   LIG    1    
 
########## Name        : 1VRT.lig
########## Description : AM1BCC_CHARGES =  -0.0002 ORIGINAL_CHARGES =  -0.0000

@<TRIPOS>MOLECULE
1VRT.lig
34    37    1     0     0    
SMALL
USER_CHARGES
@<TRIPOS>ATOM
1     N1       4.0540  -36.9310   22.2210 N.ar    1  LIG  -0.6650  -0.6200 
2     C1       4.9660  -36.2380   22.9390 C.ar    1  LIG   0.3947   0.1600 
3     H1       6.0082  -36.2811   22.6707 H       1  LIG   0.0281   0.1500 
4     C2       4.6240  -35.4500   24.0360 C.ar    1  LIG  -0.2334  -0.1500 
5     H2       5.3884  -34.9151   24.5740 H       1  LIG   0.1480   0.1500 
6     C3       3.3050  -35.3690   24.4150 C.ar    1  LIG  -0.0698  -0.1435 
7     C4       2.3460  -36.0770   23.6860 C.ar    1  LIG  -0.0398   0.1170 
8     N2       0.9890  -36.0280   24.1030 N.am    1  LIG  -0.4596  -0.5470 
9     H3       0.7643  -35.9928   25.0860 H       1  LIG   0.3311   0.3700 
10    C5      -0.1450  -36.0180   23.4080 C.2     1  LIG   0.7361   0.5438 
11    C6      -0.1190  -36.0770   21.8860 C.ar    1  LIG  -0.2550   0.0862 
12    C7      -1.1230  -35.3990   21.1890 C.ar    1  LIG  -0.0321  -0.1500 
13    H4      -1.7552  -34.6955   21.7041 H       1  LIG   0.1623   0.1500 
14    C8      -1.2960  -35.6300   19.8690 C.ar    1  LIG  -0.2723  -0.1500 
15    H5      -2.0662  -35.1073   19.3273 H       1  LIG   0.1522   0.1500 
16    C9      -0.4670  -36.5450   19.2400 C.ar    1  LIG   0.4373   0.1600 
17    H6      -0.5947  -36.7554   18.1915 H       1  LIG   0.0280   0.1500 
18    N3       0.5220  -37.2120   19.8740 N.ar    1  LIG  -0.6893  -0.6200 
19    C10      0.7040  -36.9790   21.1800 C.ar    1  LIG   0.6480   0.4100 
20    N4       1.7670  -37.6730   21.8260 N.pl3   1  LIG  -0.6924  -0.3690 
21    C11      2.7540  -36.8570   22.5840 C.ar    1  LIG   0.5805   0.4100 
22    C12      2.9040  -34.5090   25.6010 C.3     1  LIG  -0.0620   0.1435 
23    H7       2.2235  -33.7630   25.2820 H       1  LIG   0.0570   0.0000 
24    H8       2.4436  -35.1154   26.3371 H       1  LIG   0.0495   0.0000 
25    H9       3.7654  -34.0491   26.0108 H       1  LIG   0.0519   0.0000 
26    O1      -1.2400  -35.9060   23.9770 O.2     1  LIG  -0.6361  -0.5700 
27    C13      2.3440  -38.7570   21.0360 C.3     1  LIG   0.1354   0.0690 
28    H10      3.1238  -38.3754   20.4296 H       1  LIG   0.0981   0.1000 
29    C14      2.9380  -39.8900   21.8010 C.3     1  LIG  -0.1181  -0.2000 
30    H11      3.8890  -40.1268   21.3997 H       1  LIG   0.0732   0.1000 
31    H12      3.0430  -39.6129   22.8177 H       1  LIG   0.0789   0.1000 
32    C15      1.6390  -40.0610   21.0880 C.3     1  LIG  -0.1196  -0.2000 
33    H13      0.6832  -39.9283   21.5242 H       1  LIG   0.0807   0.1000 
34    H14      1.5292  -40.4423   20.1061 H       1  LIG   0.0733   0.1000 
@<TRIPOS>BOND
1     2     1     ar
2     3     2     1
3     4     2     ar
4     5     4     1
5     6     4     ar
6     7     6     ar
7     8     7     1
8     9     8     1
9     10    8     1
10    11    10    1
11    12    11    ar
12    13    12    1
13    14    12    ar
14    15    14    1
15    16    14    ar
16    17    16    1
17    18    16    ar
18    19    11    ar
19    19    18    ar
20    20    19    1
21    21    1     ar
22    21    7     ar
23    21    20    1
24    22    6     1
25    23    22    1
26    24    22    1
27    25    22    1
28    26    10    2
29    27    20    1
30    28    27    1
31    29    27    1
32    30    29    1
33    31    29    1
34    32    27    1
35    32    29    1
36    33    32    1
37    34    32    1
@<TRIPOS>SUBSTRUCTURE
1   LIG    1    
 
########## Name        : 1VRT.lig
########## Description : AM1BCC_CHARGES =  -0.0002 ORIGINAL_CHARGES =  -0.0000

@<TRIPOS>MOLECULE
1VRT.lig
34    37    1     0     0    
SMALL
USER_CHARGES
@<TRIPOS>ATOM
1     N1       4.0540  -36.9310   22.2210 N.ar    1  LIG  -0.6650  -0.6200 
2     C1       4.9660  -36.2380   22.9390 C.ar    1  LIG   0.3947   0.1600 
3     H1       6.0082  -36.2811   22.6707 H       1  LIG   0.0281   0.1500 
4     C2       4.6240  -35.4500   24.0360 C.ar    1  LIG  -0.2334  -0.1500 
5     H2       5.3884  -34.9151   24.5740 H       1  LIG   0.1480   0.1500 
6     C3       3.3050  -35.3690   24.4150 C.ar    1  LIG  -0.0698  -0.1435 
7     C4       2.3460  -36.0770   23.6860 C.ar    1  LIG  -0.0398   0.1170 
8     N2       0.9890  -36.0280   24.1030 N.am    1  LIG  -0.4596  -0.5470 
9     H3       0.7643  -35.9928   25.0860 H       1  LIG   0.3311   0.3700 
10    C5      -0.1450  -36.0180   23.4080 C.2     1  LIG   0.7361   0.5438 
11    C6      -0.1190  -36.0770   21.8860 C.ar    1  LIG  -0.2550   0.0862 
12    C7      -1.1230  -35.3990   21.1890 C.ar    1  LIG  -0.0321  -0.1500 
13    H4      -1.7552  -34.6955   21.7041 H       1  LIG   0.1623   0.1500 
14    C8      -1.2960  -35.6300   19.8690 C.ar    1  LIG  -0.2723  -0.1500 
15    H5      -2.0662  -35.1073   19.3273 H       1  LIG   0.1522   0.1500 
16    C9      -0.4670  -36.5450   19.2400 C.ar    1  LIG   0.4373   0.1600 
17    H6      -0.5947  -36.7554   18.1915 H       1  LIG   0.0280   0.1500 
18    N3       0.5220  -37.2120   19.8740 N.ar    1  LIG  -0.6893  -0.6200 
19    C10      0.7040  -36.9790   21.1800 C.ar    1  LIG   0.6480   0.4100 
20    N4       1.7670  -37.6730   21.8260 N.pl3   1  LIG  -0.6924  -0.3690 
21    C11      2.7540  -36.8570   22.5840 C.ar    1  LIG   0.5805   0.4100 
22    C12      2.9040  -34.5090   25.6010 C.3     1  LIG  -0.0620   0.1435 
23    H7       2.2235  -33.7630   25.2820 H       1  LIG   0.0570   0.0000 
24    H8       2.4436  -35.1154   26.3371 H       1  LIG   0.0495   0.0000 
25    H9       3.7654  -34.0491   26.0108 H       1  LIG   0.0519   0.0000 
26    O1      -1.2400  -35.9060   23.9770 O.2     1  LIG  -0.6361  -0.5700 
27    C13      2.3440  -38.7570   21.0360 C.3     1  LIG   0.1354   0.0690 
28    H10      3.1238  -38.3754   20.4296 H       1  LIG   0.0981   0.1000 
29    C14      2.9380  -39.8900   21.8010 C.3     1  LIG  -0.1181  -0.2000 
30    H11      3.8890  -40.1268   21.3997 H       1  LIG   0.0732   0.1000 
31    H12      3.0430  -39.6129   22.8177 H       1  LIG   0.0789   0.1000 
32    C15      1.6390  -40.0610   21.0880 C.3     1  LIG  -0.1196  -0.2000 
33    H13      0.6832  -39.9283   21.5242 H       1  LIG   0.0807   0.1000 
34    H14      1.5292  -40.4423   20.1061 H       1  LIG   0.0733   0.1000 
@<TRIPOS>BOND
1     2     1     ar
2     3     2     1
3     4     2     ar
4     5     4     1
5     6     4     ar
6     7     6     ar
7     8     7     1
8     9     8     1
9     10    8     1
10    11    10    1
11    12    11    ar
12    13    12    1
13    14    12    ar
14    15    14    1
15    16    14    ar
16    17    16    1
17    18    16    ar
18    19    11    ar
19    19    18    ar
20    20    19    1
21    21    1     ar
22    21    7     ar
23    21    20    1
24    22    6     1
25    23    22    1
26    24    22    1
27    25    22    1
28    26    10    2
29    27    20    1
30    28    27    1
31    29    27    1
32    30    29    1
33    31    29    1
34    32    27    1
35    32    29    1
36    33    32    1
37    34    32    1
@<TRIPOS>SUBSTRUCTURE
1   LIG    1    
 
########## Name        : 1VRT.lig
########## Description : AM1BCC_CHARGES =  -0.0002 ORIGINAL_CHARGES =  -0.0000

@<TRIPOS>MOLECULE
1VRT.lig
34    37    1     0     0    
SMALL
USER_CHARGES
@<TRIPOS>ATOM
1     N1       4.0540  -36.9310   22.2210 N.ar    1  LIG  -0.6650  -0.6200 
2     C1       4.9660  -36.2380   22.9390 C.ar    1  LIG   0.3947   0.1600 
3     H1       6.0082  -36.2811   22.6707 H       1  LIG   0.0281   0.1500 
4     C2       4.6240  -35.4500   24.0360 C.ar    1  LIG  -0.2334  -0.1500 
5     H2       5.3884  -34.9151   24.5740 H       1  LIG   0.1480   0.1500 
6     C3       3.3050  -35.3690   24.4150 C.ar    1  LIG  -0.0698  -0.1435 
7     C4       2.3460  -36.0770   23.6860 C.ar    1  LIG  -0.0398   0.1170 
8     N2       0.9890  -36.0280   24.1030 N.am    1  LIG  -0.4596  -0.5470 
9     H3       0.7643  -35.9928   25.0860 H       1  LIG   0.3311   0.3700 
10    C5      -0.1450  -36.0180   23.4080 C.2     1  LIG   0.7361   0.5438 
11    C6      -0.1190  -36.0770   21.8860 C.ar    1  LIG  -0.2550   0.0862 
12    C7      -1.1230  -35.3990   21.1890 C.ar    1  LIG  -0.0321  -0.1500 
13    H4      -1.7552  -34.6955   21.7041 H       1  LIG   0.1623   0.1500 
14    C8      -1.2960  -35.6300   19.8690 C.ar    1  LIG  -0.2723  -0.1500 
15    H5      -2.0662  -35.1073   19.3273 H       1  LIG   0.1522   0.1500 
16    C9      -0.4670  -36.5450   19.2400 C.ar    1  LIG   0.4373   0.1600 
17    H6      -0.5947  -36.7554   18.1915 H       1  LIG   0.0280   0.1500 
18    N3       0.5220  -37.2120   19.8740 N.ar    1  LIG  -0.6893  -0.6200 
19    C10      0.7040  -36.9790   21.1800 C.ar    1  LIG   0.6480   0.4100 
20    N4       1.7670  -37.6730   21.8260 N.pl3   1  LIG  -0.6924  -0.3690 
21    C11      2.7540  -36.8570   22.5840 C.ar    1  LIG   0.5805   0.4100 
22    C12      2.9040  -34.5090   25.6010 C.3     1  LIG  -0.0620   0.1435 
23    H7       2.2235  -33.7630   25.2820 H       1  LIG   0.0570   0.0000 
24    H8       2.4436  -35.1154   26.3371 H       1  LIG   0.0495   0.0000 
25    H9       3.7654  -34.0491   26.0108 H       1  LIG   0.0519   0.0000 
26    O1      -1.2400  -35.9060   23.9770 O.2     1  LIG  -0.6361  -0.5700 
27    C13      2.3440  -38.7570   21.0360 C.3     1  LIG   0.1354   0.0690 
28    H10      3.1238  -38.3754   20.4296 H       1  LIG   0.0981   0.1000 
29    C14      2.9380  -39.8900   21.8010 C.3     1  LIG  -0.1181  -0.2000 
30    H11      3.8890  -40.1268   21.3997 H       1  LIG   0.0732   0.1000 
31    H12      3.0430  -39.6129   22.8177 H       1  LIG   0.0789   0.1000 
32    C15      1.6390  -40.0610   21.0880 C.3     1  LIG  -0.1196  -0.2000 
33    H13      0.6832  -39.9283   21.5242 H       1  LIG   0.0807   0.1000 
34    H14      1.5292  -40.4423   20.1061 H       1  LIG   0.0733   0.1000 
@<TRIPOS>BOND
1     2     1     ar
2     3     2     1
3     4     2     ar
4     5     4     1
5     6     4     ar
6     7     6     ar
7     8     7     1
8     9     8     1
9     10    8     1
10    11    10    1
11    12    11    ar
12    13    12    1
13    14    12    ar
14    15    14    1
15    16    14    ar
16    17    16    1
17    18    16    ar
18    19    11    ar
19    19    18    ar
20    20    19    1
21    21    1     ar
22    21    7     ar
23    21    20    1
24    22    6     1
25    23    22    1
26    24    22    1
27    25    22    1
28    26    10    2
29    27    20    1
30    28    27    1
31    29    27    1
32    30    29    1
33    31    29    1
34    32    27    1
35    32    29    1
36    33    32    1
37    34    32    1
@<TRIPOS>SUBSTRUCTURE
1   LIG    1    
 
########## Name        : 1VRT.lig
########## Description : AM1BCC_CHARGES =  -0.0002 ORIGINAL_CHARGES =  -0.0000

@<TRIPOS>MOLECULE
1VRT.lig
34    37    1     0     0    
SMALL
USER_CHARGES
@<TRIPOS>ATOM
1     N1       4.0540  -36.9310   22.2210 N.ar    1  LIG  -0.6650  -0.6200 
2     C1       4.9660  -36.2380   22.9390 C.ar    1  LIG   0.3947   0.1600 
3     H1       6.0082  -36.2811   22.6707 H       1  LIG   0.0281   0.1500 
4     C2       4.6240  -35.4500   24.0360 C.ar    1  LIG  -0.2334  -0.1500 
5     H2       5.3884  -34.9151   24.5740 H       1  LIG   0.1480   0.1500 
6     C3       3.3050  -35.3690   24.4150 C.ar    1  LIG  -0.0698  -0.1435 
7     C4       2.3460  -36.0770   23.6860 C.ar    1  LIG  -0.0398   0.1170 
8     N2       0.9890  -36.0280   24.1030 N.am    1  LIG  -0.4596  -0.5470 
9     H3       0.7643  -35.9928   25.0860 H       1  LIG   0.3311   0.3700 
10    C5      -0.1450  -36.0180   23.4080 C.2     1  LIG   0.7361   0.5438 
11    C6      -0.1190  -36.0770   21.8860 C.ar    1  LIG  -0.2550   0.0862 
12    C7      -1.1230  -35.3990   21.1890 C.ar    1  LIG  -0.0321  -0.1500 
13    H4      -1.7552  -34.6955   21.7041 H       1  LIG   0.1623   0.1500 
14    C8      -1.2960  -35.6300   19.8690 C.ar    1  LIG  -0.2723  -0.1500 
15    H5      -2.0662  -35.1073   19.3273 H       1  LIG   0.1522   0.1500 
16    C9      -0.4670  -36.5450   19.2400 C.ar    1  LIG   0.4373   0.1600 
17    H6      -0.5947  -36.7554   18.1915 H       1  LIG   0.0280   0.1500 
18    N3       0.5220  -37.2120   19.8740 N.ar    1  LIG  -0.6893  -0.6200 
19    C10      0.7040  -36.9790   21.1800 C.ar    1  LIG   0.6480   0.4100 
20    N4       1.7670  -37.6730   21.8260 N.pl3   1  LIG  -0.6924  -0.3690 
21    C11      2.7540  -36.8570   22.5840 C.ar    1  LIG   0.5805   0.4100 
22    C12      2.9040  -34.5090   25.6010 C.3     1  LIG  -0.0620   0.1435 
23    H7       2.2235  -33.7630   25.2820 H       1  LIG   0.0570   0.0000 
24    H8       2.4436  -35.1154   26.3371 H       1  LIG   0.0495   0.0000 
25    H9       3.7654  -34.0491   26.0108 H       1  LIG   0.0519   0.0000 
26    O1      -1.2400  -35.9060   23.9770 O.2     1  LIG  -0.6361  -0.5700 
27    C13      2.3440  -38.7570   21.0360 C.3     1  LIG   0.1354   0.0690 
28    H10      3.1238  -38.3754   20.4296 H       1  LIG   0.0981   0.1000 
29    C14      2.9380  -39.8900   21.8010 C.3     1  LIG  -0.1181  -0.2000 
30    H11      3.8890  -40.1268   21.3997 H       1  LIG   0.0732   0.1000 
31    H12      3.0430  -39.6129   22.8177 H       1  LIG   0.0789   0.1000 
32    C15      1.6390  -40.0610   21.0880 C.3     1  LIG  -0.1196  -0.2000 
33    H13      0.6832  -39.9283   21.5242 H       1  LIG   0.0807   0.1000 
34    H14      1.5292  -40.4423   20.1061 H       1  LIG   0.0733   0.1000 
@<TRIPOS>BOND
1     2     1     ar
2     3     2     1
3     4     2     ar
4     5     4     1
5     6     4     ar
6     7     6     ar
7     8     7     1
8     9     8     1
9     10    8     1
10    11    10    1
11    12    11    ar
12    13    12    1
13    14    12    ar
14    15    14    1
15    16    14    ar
16    17    16    1
17    18    16    ar
18    19    11    ar
19    19    18    ar
20    20    19    1
21    21    1     ar
22    21    7     ar
23    21    20    1
24    22    6     1
25    23    22    1
26    24    22    1
27    25    22    1
28    26    10    2
29    27    20    1
30    28    27    1
31    29    27    1
32    30    29    1
33    31    29    1
34    32    27    1
35    32    29    1
36    33    32    1
37    34    32    1
@<TRIPOS>SUBSTRUCTURE
1   LIG    1    
 
########## Name        : 1VRT.lig
########## Description : AM1BCC_CHARGES =  -0.0002 ORIGINAL_CHARGES =  -0.0000

@<TRIPOS>MOLECULE
1VRT.lig
34    37    1     0     0    
SMALL
USER_CHARGES
@<TRIPOS>ATOM
1     N1       4.0540  -36.9310   22.2210 N.ar    1  LIG  -0.6650  -0.6200 
2     C1       4.9660  -36.2380   22.9390 C.ar    1  LIG   0.3947   0.1600 
3     H1       6.0082  -36.2811   22.6707 H       1  LIG   0.0281   0.1500 
4     C2       4.6240  -35.4500   24.0360 C.ar    1  LIG  -0.2334  -0.1500 
5     H2       5.3884  -34.9151   24.5740 H       1  LIG   0.1480   0.1500 
6     C3       3.3050  -35.3690   24.4150 C.ar    1  LIG  -0.0698  -0.1435 
7     C4       2.3460  -36.0770   23.6860 C.ar    1  LIG  -0.0398   0.1170 
8     N2       0.9890  -36.0280   24.1030 N.am    1  LIG  -0.4596  -0.5470 
9     H3       0.7643  -35.9928   25.0860 H       1  LIG   0.3311   0.3700 
10    C5      -0.1450  -36.0180   23.4080 C.2     1  LIG   0.7361   0.5438 
11    C6      -0.1190  -36.0770   21.8860 C.ar    1  LIG  -0.2550   0.0862 
12    C7      -1.1230  -35.3990   21.1890 C.ar    1  LIG  -0.0321  -0.1500 
13    H4      -1.7552  -34.6955   21.7041 H       1  LIG   0.1623   0.1500 
14    C8      -1.2960  -35.6300   19.8690 C.ar    1  LIG  -0.2723  -0.1500 
15    H5      -2.0662  -35.1073   19.3273 H       1  LIG   0.1522   0.1500 
16    C9      -0.4670  -36.5450   19.2400 C.ar    1  LIG   0.4373   0.1600 
17    H6      -0.5947  -36.7554   18.1915 H       1  LIG   0.0280   0.1500 
18    N3       0.5220  -37.2120   19.8740 N.ar    1  LIG  -0.6893  -0.6200 
19    C10      0.7040  -36.9790   21.1800 C.ar    1  LIG   0.6480   0.4100 
20    N4       1.7670  -37.6730   21.8260 N.pl3   1  LIG  -0.6924  -0.3690 
21    C11      2.7540  -36.8570   22.5840 C.ar    1  LIG   0.5805   0.4100 
22    C12      2.9040  -34.5090   25.6010 C.3     1  LIG  -0.0620   0.1435 
23    H7       2.2235  -33.7630   25.2820 H       1  LIG   0.0570   0.0000 
24    H8       2.4436  -35.1154   26.3371 H       1  LIG   0.0495   0.0000 
25    H9       3.7654  -34.0491   26.0108 H       1  LIG   0.0519   0.0000 
26    O1      -1.2400  -35.9060   23.9770 O.2     1  LIG  -0.6361  -0.5700 
27    C13      2.3440  -38.7570   21.0360 C.3     1  LIG   0.1354   0.0690 
28    H10      3.1238  -38.3754   20.4296 H       1  LIG   0.0981   0.1000 
29    C14      2.9380  -39.8900   21.8010 C.3     1  LIG  -0.1181  -0.2000 
30    H11      3.8890  -40.1268   21.3997 H       1  LIG   0.0732   0.1000 
31    H12      3.0430  -39.6129   22.8177 H       1  LIG   0.0789   0.1000 
32    C15      1.6390  -40.0610   21.0880 C.3     1  LIG  -0.1196  -0.2000 
33    H13      0.6832  -39.9283   21.5242 H       1  LIG   0.0807   0.1000 
34    H14      1.5292  -40.4423   20.1061 H       1  LIG   0.0733   0.1000 
@<TRIPOS>BOND
1     2     1     ar
2     3     2     1
3     4     2     ar
4     5     4     1
5     6     4     ar
6     7     6     ar
7     8     7     1
8     9     8     1
9     10    8     1
10    11    10    1
11    12    11    ar
12    13    12    1
13    14    12    ar
14    15    14    1
15    16    14    ar
16    17    16    1
17    18    16    ar
18    19    11    ar
19    19    18    ar
20    20    19    1
21    21    1     ar
22    21    7     ar
23    21    20    1
24    22    6     1
25    23    22    1
26    24    22    1
27    25    22    1
28    26    10    2
29    27    20    1
30    28    27    1
31    29    27    1
32    30    29    1
33    31    29    1
34    32    27    1
35    32    29    1
36    33    32    1
37    34    32    1
@<TRIPOS>SUBSTRUCTURE
1   LIG    1    
 
########## Name        : 1VRT.lig
########## Description : AM1BCC_CHARGES =  -0.0002 ORIGINAL_CHARGES =  -0.0000

@<TRIPOS>MOLECULE
1VRT.lig
34    37    1     0     0    
SMALL
USER_CHARGES
@<TRIPOS>ATOM
1     N1       4.0540  -36.9310   22.2210 N.ar    1  LIG  -0.6650  -0.6200 
2     C1       4.9660  -36.2380   22.9390 C.ar    1  LIG   0.3947   0.1600 
3     H1       6.0082  -36.2811   22.6707 H       1  LIG   0.0281   0.1500 
4     C2       4.6240  -35.4500   24.0360 C.ar    1  LIG  -0.2334  -0.1500 
5     H2       5.3884  -34.9151   24.5740 H       1  LIG   0.1480   0.1500 
6     C3       3.3050  -35.3690   24.4150 C.ar    1  LIG  -0.0698  -0.1435 
7     C4       2.3460  -36.0770   23.6860 C.ar    1  LIG  -0.0398   0.1170 
8     N2       0.9890  -36.0280   24.1030 N.am    1  LIG  -0.4596  -0.5470 
9     H3       0.7643  -35.9928   25.0860 H       1  LIG   0.3311   0.3700 
10    C5      -0.1450  -36.0180   23.4080 C.2     1  LIG   0.7361   0.5438 
11    C6      -0.1190  -36.0770   21.8860 C.ar    1  LIG  -0.2550   0.0862 
12    C7      -1.1230  -35.3990   21.1890 C.ar    1  LIG  -0.0321  -0.1500 
13    H4      -1.7552  -34.6955   21.7041 H       1  LIG   0.1623   0.1500 
14    C8      -1.2960  -35.6300   19.8690 C.ar    1  LIG  -0.2723  -0.1500 
15    H5      -2.0662  -35.1073   19.3273 H       1  LIG   0.1522   0.1500 
16    C9      -0.4670  -36.5450   19.2400 C.ar    1  LIG   0.4373   0.1600 
17    H6      -0.5947  -36.7554   18.1915 H       1  LIG   0.0280   0.1500 
18    N3       0.5220  -37.2120   19.8740 N.ar    1  LIG  -0.6893  -0.6200 
19    C10      0.7040  -36.9790   21.1800 C.ar    1  LIG   0.6480   0.4100 
20    N4       1.7670  -37.6730   21.8260 N.pl3   1  LIG  -0.6924  -0.3690 
21    C11      2.7540  -36.8570   22.5840 C.ar    1  LIG   0.5805   0.4100 
22    C12      2.9040  -34.5090   25.6010 C.3     1  LIG  -0.0620   0.1435 
23    H7       2.2235  -33.7630   25.2820 H       1  LIG   0.0570   0.0000 
24    H8       2.4436  -35.1154   26.3371 H       1  LIG   0.0495   0.0000 
25    H9       3.7654  -34.0491   26.0108 H       1  LIG   0.0519   0.0000 
26    O1      -1.2400  -35.9060   23.9770 O.2     1  LIG  -0.6361  -0.5700 
27    C13      2.3440  -38.7570   21.0360 C.3     1  LIG   0.1354   0.0690 
28    H10      3.1238  -38.3754   20.4296 H       1  LIG   0.0981   0.1000 
29    C14      2.9380  -39.8900   21.8010 C.3     1  LIG  -0.1181  -0.2000 
30    H11      3.8890  -40.1268   21.3997 H       1  LIG   0.0732   0.1000 
31    H12      3.0430  -39.6129   22.8177 H       1  LIG   0.0789   0.1000 
32    C15      1.6390  -40.0610   21.0880 C.3     1  LIG  -0.1196  -0.2000 
33    H13      0.6832  -39.9283   21.5242 H       1  LIG   0.0807   0.1000 
34    H14      1.5292  -40.4423   20.1061 H       1  LIG   0.0733   0.1000 
@<TRIPOS>BOND
1     2     1     ar
2     3     2     1
3     4     2     ar
4     5     4     1
5     6     4     ar
6     7     6     ar
7     8     7     1
8     9     8     1
9     10    8     1
10    11    10    1
11    12    11    ar
12    13    12    1
13    14    12    ar
14    15    14    1
15    16    14    ar
16    17    16    1
17    18    16    ar
18    19    11    ar
19    19    18    ar
20    20    19    1
21    21    1     ar
22    21    7     ar
23    21    20    1
24    22    6     1
25    23    22    1
26    24    22    1
27    25    22    1
28    26    10    2
29    27    20    1
30    28    27    1
31    29    27    1
32    30    29    1
33    31    29    1
34    32    27    1
35    32    29    1
36    33    32    1
37    34    32    1
@<TRIPOS>SUBSTRUCTURE
1   LIG    1    
 
########## Name        : 1VRT.lig
########## Description : AM1BCC_CHARGES =  -0.0002 ORIGINAL_CHARGES =  -0.0000

@<TRIPOS>MOLECULE
1VRT.lig
34    37    1     0     0    
SMALL
USER_CHARGES
@<TRIPOS>ATOM
1     N1       4.0540  -36.9310   22.2210 N.ar    1  LIG  -0.6650  -0.6200 
2     C1       4.9660  -36.2380   22.9390 C.ar    1  LIG   0.3947   0.1600 
3     H1       6.0082  -36.2811   22.6707 H       1  LIG   0.0281   0.1500 
4     C2       4.6240  -35.4500   24.0360 C.ar    1  LIG  -0.2334  -0.1500 
5     H2       5.3884  -34.9151   24.5740 H       1  LIG   0.1480   0.1500 
6     C3       3.3050  -35.3690   24.4150 C.ar    1  LIG  -0.0698  -0.1435 
7     C4       2.3460  -36.0770   23.6860 C.ar    1  LIG  -0.0398   0.1170 
8     N2       0.9890  -36.0280   24.1030 N.am    1  LIG  -0.4596  -0.5470 
9     H3       0.7643  -35.9928   25.0860 H       1  LIG   0.3311   0.3700 
10    C5      -0.1450  -36.0180   23.4080 C.2     1  LIG   0.7361   0.5438 
11    C6      -0.1190  -36.0770   21.8860 C.ar    1  LIG  -0.2550   0.0862 
12    C7      -1.1230  -35.3990   21.1890 C.ar    1  LIG  -0.0321  -0.1500 
13    H4      -1.7552  -34.6955   21.7041 H       1  LIG   0.1623   0.1500 
14    C8      -1.2960  -35.6300   19.8690 C.ar    1  LIG  -0.2723  -0.1500 
15    H5      -2.0662  -35.1073   19.3273 H       1  LIG   0.1522   0.1500 
16    C9      -0.4670  -36.5450   19.2400 C.ar    1  LIG   0.4373   0.1600 
17    H6      -0.5947  -36.7554   18.1915 H       1  LIG   0.0280   0.1500 
18    N3       0.5220  -37.2120   19.8740 N.ar    1  LIG  -0.6893  -0.6200 
19    C10      0.7040  -36.9790   21.1800 C.ar    1  LIG   0.6480   0.4100 
20    N4       1.7670  -37.6730   21.8260 N.pl3   1  LIG  -0.6924  -0.3690 
21    C11      2.7540  -36.8570   22.5840 C.ar    1  LIG   0.5805   0.4100 
22    C12      2.9040  -34.5090   25.6010 C.3     1  LIG  -0.0620   0.1435 
23    H7       2.2235  -33.7630   25.2820 H       1  LIG   0.0570   0.0000 
24    H8       2.4436  -35.1154   26.3371 H       1  LIG   0.0495   0.0000 
25    H9       3.7654  -34.0491   26.0108 H       1  LIG   0.0519   0.0000 
26    O1      -1.2400  -35.9060   23.9770 O.2     1  LIG  -0.6361  -0.5700 
27    C13      2.3440  -38.7570   21.0360 C.3     1  LIG   0.1354   0.0690 
28    H10      3.1238  -38.3754   20.4296 H       1  LIG   0.0981   0.1000 
29    C14      2.9380  -39.8900   21.8010 C.3     1  LIG  -0.1181  -0.2000 
30    H11      3.8890  -40.1268   21.3997 H       1  LIG   0.0732   0.1000 
31    H12      3.0430  -39.6129   22.8177 H       1  LIG   0.0789   0.1000 
32    C15      1.6390  -40.0610   21.0880 C.3     1  LIG  -0.1196  -0.2000 
33    H13      0.6832  -39.9283   21.5242 H       1  LIG   0.0807   0.1000 
34    H14      1.5292  -40.4423   20.1061 H       1  LIG   0.0733   0.1000 
@<TRIPOS>BOND
1     2     1     ar
2     3     2     1
3     4     2     ar
4     5     4     1
5     6     4     ar
6     7     6     ar
7     8     7     1
8     9     8     1
9     10    8     1
10    11    10    1
11    12    11    ar
12    13    12    1
13    14    12    ar
14    15    14    1
15    16    14    ar
16    17    16    1
17    18    16    ar
18    19    11    ar
19    19    18    ar
20    20    19    1
21    21    1     ar
22    21    7     ar
23    21    20    1
24    22    6     1
25    23    22    1
26    24    22    1
27    25    22    1
28    26    10    2
29    27    20    1
30    28    27    1
31    29    27    1
32    30    29    1
33    31    29    1
34    32    27    1
35    32    29    1
36    33    32    1
37    34    32    1
@<TRIPOS>SUBSTRUCTURE
1   LIG    1    
 
########## Name        : 1VRT.lig
########## Description : AM1BCC_CHARGES =  -0.0002 ORIGINAL_CHARGES =  -0.0000

@<TRIPOS>MOLECULE
1VRT.lig
34    37    1     0     0    
SMALL
USER_CHARGES
@<TRIPOS>ATOM
1     N1       4.0540  -36.9310   22.2210 N.ar    1  LIG  -0.6650  -0.6200 
2     C1       4.9660  -36.2380   22.9390 C.ar    1  LIG   0.3947   0.1600 
3     H1       6.0082  -36.2811   22.6707 H       1  LIG   0.0281   0.1500 
4     C2       4.6240  -35.4500   24.0360 C.ar    1  LIG  -0.2334  -0.1500 
5     H2       5.3884  -34.9151   24.5740 H       1  LIG   0.1480   0.1500 
6     C3       3.3050  -35.3690   24.4150 C.ar    1  LIG  -0.0698  -0.1435 
7     C4       2.3460  -36.0770   23.6860 C.ar    1  LIG  -0.0398   0.1170 
8     N2       0.9890  -36.0280   24.1030 N.am    1  LIG  -0.4596  -0.5470 
9     H3       0.7643  -35.9928   25.0860 H       1  LIG   0.3311   0.3700 
10    C5      -0.1450  -36.0180   23.4080 C.2     1  LIG   0.7361   0.5438 
11    C6      -0.1190  -36.0770   21.8860 C.ar    1  LIG  -0.2550   0.0862 
12    C7      -1.1230  -35.3990   21.1890 C.ar    1  LIG  -0.0321  -0.1500 
13    H4      -1.7552  -34.6955   21.7041 H       1  LIG   0.1623   0.1500 
14    C8      -1.2960  -35.6300   19.8690 C.ar    1  LIG  -0.2723  -0.1500 
15    H5      -2.0662  -35.1073   19.3273 H       1  LIG   0.1522   0.1500 
16    C9      -0.4670  -36.5450   19.2400 C.ar    1  LIG   0.4373   0.1600 
17    H6      -0.5947  -36.7554   18.1915 H       1  LIG   0.0280   0.1500 
18    N3       0.5220  -37.2120   19.8740 N.ar    1  LIG  -0.6893  -0.6200 
19    C10      0.7040  -36.9790   21.1800 C.ar    1  LIG   0.6480   0.4100 
20    N4       1.7670  -37.6730   21.8260 N.pl3   1  LIG  -0.6924  -0.3690 
21    C11      2.7540  -36.8570   22.5840 C.ar    1  LIG   0.5805   0.4100 
22    C12      2.9040  -34.5090   25.6010 C.3     1  LIG  -0.0620   0.1435 
23    H7       2.2235  -33.7630   25.2820 H       1  LIG   0.0570   0.0000 
24    H8       2.4436  -35.1154   26.3371 H       1  LIG   0.0495   0.0000 
25    H9       3.7654  -34.0491   26.0108 H       1  LIG   0.0519   0.0000 
26    O1      -1.2400  -35.9060   23.9770 O.2     1  LIG  -0.6361  -0.5700 
27    C13      2.3440  -38.7570   21.0360 C.3     1  LIG   0.1354   0.0690 
28    H10      3.1238  -38.3754   20.4296 H       1  LIG   0.0981   0.1000 
29    C14      2.9380  -39.8900   21.8010 C.3     1  LIG  -0.1181  -0.2000 
30    H11      3.8890  -40.1268   21.3997 H       1  LIG   0.0732   0.1000 
31    H12      3.0430  -39.6129   22.8177 H       1  LIG   0.0789   0.1000 
32    C15      1.6390  -40.0610   21.0880 C.3     1  LIG  -0.1196  -0.2000 
33    H13      0.6832  -39.9283   21.5242 H       1  LIG   0.0807   0.1000 
34    H14      1.5292  -40.4423   20.1061 H       1  LIG   0.0733   0.1000 
@<TRIPOS>BOND
1     2     1     ar
2     3     2     1
3     4     2     ar
4     5     4     1
5     6     4     ar
6     7     6     ar
7     8     7     1
8     9     8     1
9     10    8     1
10    11    10    1
11    12    11    ar
12    13    12    1
13    14    12    ar
14    15    14    1
15    16    14    ar
16    17    16    1
17    18    16    ar
18    19    11    ar
19    19    18    ar
20    20    19    1
21    21    1     ar
22    21    7     ar
23    21    20    1
24    22    6     1
25    23    22    1
26    24    22    1
27    25    22    1
28    26    10    2
29    27    20    1
30    28    27    1
31    29    27    1
32    30    29    1
33    31    29    1
34    32    27    1
35    32    29    1
36    33    32    1
37    34    32    1
@<TRIPOS>SUBSTRUCTURE
1   LIG    1    
 
########## Name        : 1VRT.lig
########## Description : AM1BCC_CHARGES =  -0.0002 ORIGINAL_CHARGES =  -0.0000

@<TRIPOS>MOLECULE
1VRT.lig
34    37    1     0     0    
SMALL
USER_CHARGES
@<TRIPOS>ATOM
1     N1       4.0540  -36.9310   22.2210 N.ar    1  LIG  -0.6650  -0.6200 
2     C1       4.9660  -36.2380   22.9390 C.ar    1  LIG   0.3947   0.1600 
3     H1       6.0082  -36.2811   22.6707 H       1  LIG   0.0281   0.1500 
4     C2       4.6240  -35.4500   24.0360 C.ar    1  LIG  -0.2334  -0.1500 
5     H2       5.3884  -34.9151   24.5740 H       1  LIG   0.1480   0.1500 
6     C3       3.3050  -35.3690   24.4150 C.ar    1  LIG  -0.0698  -0.1435 
7     C4       2.3460  -36.0770   23.6860 C.ar    1  LIG  -0.0398   0.1170 
8     N2       0.9890  -36.0280   24.1030 N.am    1  LIG  -0.4596  -0.5470 
9     H3       0.7643  -35.9928   25.0860 H       1  LIG   0.3311   0.3700 
10    C5      -0.1450  -36.0180   23.4080 C.2     1  LIG   0.7361   0.5438 
11    C6      -0.1190  -36.0770   21.8860 C.ar    1  LIG  -0.2550   0.0862 
12    C7      -1.1230  -35.3990   21.1890 C.ar    1  LIG  -0.0321  -0.1500 
13    H4      -1.7552  -34.6955   21.7041 H       1  LIG   0.1623   0.1500 
14    C8      -1.2960  -35.6300   19.8690 C.ar    1  LIG  -0.2723  -0.1500 
15    H5      -2.0662  -35.1073   19.3273 H       1  LIG   0.1522   0.1500 
16    C9      -0.4670  -36.5450   19.2400 C.ar    1  LIG   0.4373   0.1600 
17    H6      -0.5947  -36.7554   18.1915 H       1  LIG   0.0280   0.1500 
18    N3       0.5220  -37.2120   19.8740 N.ar    1  LIG  -0.6893  -0.6200 
19    C10      0.7040  -36.9790   21.1800 C.ar    1  LIG   0.6480   0.4100 
20    N4       1.7670  -37.6730   21.8260 N.pl3   1  LIG  -0.6924  -0.3690 
21    C11      2.7540  -36.8570   22.5840 C.ar    1  LIG   0.5805   0.4100 
22    C12      2.9040  -34.5090   25.6010 C.3     1  LIG  -0.0620   0.1435 
23    H7       2.2235  -33.7630   25.2820 H       1  LIG   0.0570   0.0000 
24    H8       2.4436  -35.1154   26.3371 H       1  LIG   0.0495   0.0000 
25    H9       3.7654  -34.0491   26.0108 H       1  LIG   0.0519   0.0000 
26    O1      -1.2400  -35.9060   23.9770 O.2     1  LIG  -0.6361  -0.5700 
27    C13      2.3440  -38.7570   21.0360 C.3     1  LIG   0.1354   0.0690 
28    H10      3.1238  -38.3754   20.4296 H       1  LIG   0.0981   0.1000 
29    C14      2.9380  -39.8900   21.8010 C.3     1  LIG  -0.1181  -0.2000 
30    H11      3.8890  -40.1268   21.3997 H       1  LIG   0.0732   0.1000 
31    H12      3.0430  -39.6129   22.8177 H       1  LIG   0.0789   0.1000 
32    C15      1.6390  -40.0610   21.0880 C.3     1  LIG  -0.1196  -0.2000 
33    H13      0.6832  -39.9283   21.5242 H       1  LIG   0.0807   0.1000 
34    H14      1.5292  -40.4423   20.1061 H       1  LIG   0.0733   0.1000 
@<TRIPOS>BOND
1     2     1     ar
2     3     2     1
3     4     2     ar
4     5     4     1
5     6     4     ar
6     7     6     ar
7     8     7     1
8     9     8     1
9     10    8     1
10    11    10    1
11    12    11    ar
12    13    12    1
13    14    12    ar
14    15    14    1
15    16    14    ar
16    17    16    1
17    18    16    ar
18    19    11    ar
19    19    18    ar
20    20    19    1
21    21    1     ar
22    21    7     ar
23    21    20    1
24    22    6     1
25    23    22    1
26    24    22    1
27    25    22    1
28    26    10    2
29    27    20    1
30    28    27    1
31    29    27    1
32    30    29    1
33    31    29    1
34    32    27    1
35    32    29    1
36    33    32    1
37    34    32    1
@<TRIPOS>SUBSTRUCTURE
1   LIG    1    
 
########## Name        : 1VRT.lig
########## Description : AM1BCC_CHARGES =  -0.0002 ORIGINAL_CHARGES =  -0.0000

@<TRIPOS>MOLECULE
1VRT.lig
34    37    1     0     0    
SMALL
USER_CHARGES
@<TRIPOS>ATOM
1     N1       4.0540  -36.9310   22.2210 N.ar    1  LIG  -0.6650  -0.6200 
2     C1       4.9660  -36.2380   22.9390 C.ar    1  LIG   0.3947   0.1600 
3     H1       6.0082  -36.2811   22.6707 H       1  LIG   0.0281   0.1500 
4     C2       4.6240  -35.4500   24.0360 C.ar    1  LIG  -0.2334  -0.1500 
5     H2       5.3884  -34.9151   24.5740 H       1  LIG   0.1480   0.1500 
6     C3       3.3050  -35.3690   24.4150 C.ar    1  LIG  -0.0698  -0.1435 
7     C4       2.3460  -36.0770   23.6860 C.ar    1  LIG  -0.0398   0.1170 
8     N2       0.9890  -36.0280   24.1030 N.am    1  LIG  -0.4596  -0.5470 
9     H3       0.7643  -35.9928   25.0860 H       1  LIG   0.3311   0.3700 
10    C5      -0.1450  -36.0180   23.4080 C.2     1  LIG   0.7361   0.5438 
11    C6      -0.1190  -36.0770   21.8860 C.ar    1  LIG  -0.2550   0.0862 
12    C7      -1.1230  -35.3990   21.1890 C.ar    1  LIG  -0.0321  -0.1500 
13    H4      -1.7552  -34.6955   21.7041 H       1  LIG   0.1623   0.1500 
14    C8      -1.2960  -35.6300   19.8690 C.ar    1  LIG  -0.2723  -0.1500 
15    H5      -2.0662  -35.1073   19.3273 H       1  LIG   0.1522   0.1500 
16    C9      -0.4670  -36.5450   19.2400 C.ar    1  LIG   0.4373   0.1600 
17    H6      -0.5947  -36.7554   18.1915 H       1  LIG   0.0280   0.1500 
18    N3       0.5220  -37.2120   19.8740 N.ar    1  LIG  -0.6893  -0.6200 
19    C10      0.7040  -36.9790   21.1800 C.ar    1  LIG   0.6480   0.4100 
20    N4       1.7670  -37.6730   21.8260 N.pl3   1  LIG  -0.6924  -0.3690 
21    C11      2.7540  -36.8570   22.5840 C.ar    1  LIG   0.5805   0.4100 
22    C12      2.9040  -34.5090   25.6010 C.3     1  LIG  -0.0620   0.1435 
23    H7       2.2235  -33.7630   25.2820 H       1  LIG   0.0570   0.0000 
24    H8       2.4436  -35.1154   26.3371 H       1  LIG   0.0495   0.0000 
25    H9       3.7654  -34.0491   26.0108 H       1  LIG   0.0519   0.0000 
26    O1      -1.2400  -35.9060   23.9770 O.2     1  LIG  -0.6361  -0.5700 
27    C13      2.3440  -38.7570   21.0360 C.3     1  LIG   0.1354   0.0690 
28    H10      3.1238  -38.3754   20.4296 H       1  LIG   0.0981   0.1000 
29    C14      2.9380  -39.8900   21.8010 C.3     1  LIG  -0.1181  -0.2000 
30    H11      3.8890  -40.1268   21.3997 H       1  LIG   0.0732   0.1000 
31    H12      3.0430  -39.6129   22.8177 H       1  LIG   0.0789   0.1000 
32    C15      1.6390  -40.0610   21.0880 C.3     1  LIG  -0.1196  -0.2000 
33    H13      0.6832  -39.9283   21.5242 H       1  LIG   0.0807   0.1000 
34    H14      1.5292  -40.4423   20.1061 H       1  LIG   0.0733   0.1000 
@<TRIPOS>BOND
1     2     1     ar
2     3     2     1
3     4     2     ar
4     5     4     1
5     6     4     ar
6     7     6     ar
7     8     7     1
8     9     8     1
9     10    8     1
10    11    10    1
11    12    11    ar
12    13    12    1
13    14    12    ar
14    15    14    1
15    16    14    ar
16    17    16    1
17    18    16    ar
18    19    11    ar
19    19    18    ar
20    20    19    1
21    21    1     ar
22    21    7     ar
23    21    20    1
24    22    6     1
25    23    22    1
26    24    22    1
27    25    22    1
28    26    10    2
29    27    20    1
30    28    27    1
31    29    27    1
32    30    29    1
33    31    29    1
34    32    27    1
35    32    29    1
36    33    32    1
37    34    32    1
@<TRIPOS>SUBSTRUCTURE
1   LIG    1    
 
########## Name        : 1VRT.lig
########## Description : AM1BCC_CHARGES =  -0.0002 ORIGINAL_CHARGES =  -0.0000

@<TRIPOS>MOLECULE
1VRT.lig
34    37    1     0     0    
SMALL
USER_CHARGES
@<TRIPOS>ATOM
1     N1       4.0540  -36.9310   22.2210 N.ar    1  LIG  -0.6650  -0.6200 
2     C1       4.9660  -36.2380   22.9390 C.ar    1  LIG   0.3947   0.1600 
3     H1       6.0082  -36.2811   22.6707 H       1  LIG   0.0281   0.1500 
4     C2       4.6240  -35.4500   24.0360 C.ar    1  LIG  -0.2334  -0.1500 
5     H2       5.3884  -34.9151   24.5740 H       1  LIG   0.1480   0.1500 
6     C3       3.3050  -35.3690   24.4150 C.ar    1  LIG  -0.0698  -0.1435 
7     C4       2.3460  -36.0770   23.6860 C.ar    1  LIG  -0.0398   0.1170 
8     N2       0.9890  -36.0280   24.1030 N.am    1  LIG  -0.4596  -0.5470 
9     H3       0.7643  -35.9928   25.0860 H       1  LIG   0.3311   0.3700 
10    C5      -0.1450  -36.0180   23.4080 C.2     1  LIG   0.7361   0.5438 
11    C6      -0.1190  -36.0770   21.8860 C.ar    1  LIG  -0.2550   0.0862 
12    C7      -1.1230  -35.3990   21.1890 C.ar    1  LIG  -0.0321  -0.1500 
13    H4      -1.7552  -34.6955   21.7041 H       1  LIG   0.1623   0.1500 
14    C8      -1.2960  -35.6300   19.8690 C.ar    1  LIG  -0.2723  -0.1500 
15    H5      -2.0662  -35.1073   19.3273 H       1  LIG   0.1522   0.1500 
16    C9      -0.4670  -36.5450   19.2400 C.ar    1  LIG   0.4373   0.1600 
17    H6      -0.5947  -36.7554   18.1915 H       1  LIG   0.0280   0.1500 
18    N3       0.5220  -37.2120   19.8740 N.ar    1  LIG  -0.6893  -0.6200 
19    C10      0.7040  -36.9790   21.1800 C.ar    1  LIG   0.6480   0.4100 
20    N4       1.7670  -37.6730   21.8260 N.pl3   1  LIG  -0.6924  -0.3690 
21    C11      2.7540  -36.8570   22.5840 C.ar    1  LIG   0.5805   0.4100 
22    C12      2.9040  -34.5090   25.6010 C.3     1  LIG  -0.0620   0.1435 
23    H7       2.2235  -33.7630   25.2820 H       1  LIG   0.0570   0.0000 
24    H8       2.4436  -35.1154   26.3371 H       1  LIG   0.0495   0.0000 
25    H9       3.7654  -34.0491   26.0108 H       1  LIG   0.0519   0.0000 
26    O1      -1.2400  -35.9060   23.9770 O.2     1  LIG  -0.6361  -0.5700 
27    C13      2.3440  -38.7570   21.0360 C.3     1  LIG   0.1354   0.0690 
28    H10      3.1238  -38.3754   20.4296 H       1  LIG   0.0981   0.1000 
29    C14      2.9380  -39.8900   21.8010 C.3     1  LIG  -0.1181  -0.2000 
30    H11      3.8890  -40.1268   21.3997 H       1  LIG   0.0732   0.1000 
31    H12      3.0430  -39.6129   22.8177 H       1  LIG   0.0789   0.1000 
32    C15      1.6390  -40.0610   21.0880 C.3     1  LIG  -0.1196  -0.2000 
33    H13      0.6832  -39.9283   21.5242 H       1  LIG   0.0807   0.1000 
34    H14      1.5292  -40.4423   20.1061 H       1  LIG   0.0733   0.1000 
@<TRIPOS>BOND
1     2     1     ar
2     3     2     1
3     4     2     ar
4     5     4     1
5     6     4     ar
6     7     6     ar
7     8     7     1
8     9     8     1
9     10    8     1
10    11    10    1
11    12    11    ar
12    13    12    1
13    14    12    ar
14    15    14    1
15    16    14    ar
16    17    16    1
17    18    16    ar
18    19    11    ar
19    19    18    ar
20    20    19    1
21    21    1     ar
22    21    7     ar
23    21    20    1
24    22    6     1
25    23    22    1
26    24    22    1
27    25    22    1
28    26    10    2
29    27    20    1
30    28    27    1
31    29    27    1
32    30    29    1
33    31    29    1
34    32    27    1
35    32    29    1
36    33    32    1
37    34    32    1
@<TRIPOS>SUBSTRUCTURE
1   LIG    1    
 
########## Name        : 1VRT.lig
########## Description : AM1BCC_CHARGES =  -0.0002 ORIGINAL_CHARGES =  -0.0000

@<TRIPOS>MOLECULE
1VRT.lig
34    37    1     0     0    
SMALL
USER_CHARGES
@<TRIPOS>ATOM
1     N1       4.0540  -36.9310   22.2210 N.ar    1  LIG  -0.6650  -0.6200 
2     C1       4.9660  -36.2380   22.9390 C.ar    1  LIG   0.3947   0.1600 
3     H1       6.0082  -36.2811   22.6707 H       1  LIG   0.0281   0.1500 
4     C2       4.6240  -35.4500   24.0360 C.ar    1  LIG  -0.2334  -0.1500 
5     H2       5.3884  -34.9151   24.5740 H       1  LIG   0.1480   0.1500 
6     C3       3.3050  -35.3690   24.4150 C.ar    1  LIG  -0.0698  -0.1435 
7     C4       2.3460  -36.0770   23.6860 C.ar    1  LIG  -0.0398   0.1170 
8     N2       0.9890  -36.0280   24.1030 N.am    1  LIG  -0.4596  -0.5470 
9     H3       0.7643  -35.9928   25.0860 H       1  LIG   0.3311   0.3700 
10    C5      -0.1450  -36.0180   23.4080 C.2     1  LIG   0.7361   0.5438 
11    C6      -0.1190  -36.0770   21.8860 C.ar    1  LIG  -0.2550   0.0862 
12    C7      -1.1230  -35.3990   21.1890 C.ar    1  LIG  -0.0321  -0.1500 
13    H4      -1.7552  -34.6955   21.7041 H       1  LIG   0.1623   0.1500 
14    C8      -1.2960  -35.6300   19.8690 C.ar    1  LIG  -0.2723  -0.1500 
15    H5      -2.0662  -35.1073   19.3273 H       1  LIG   0.1522   0.1500 
16    C9      -0.4670  -36.5450   19.2400 C.ar    1  LIG   0.4373   0.1600 
17    H6      -0.5947  -36.7554   18.1915 H       1  LIG   0.0280   0.1500 
18    N3       0.5220  -37.2120   19.8740 N.ar    1  LIG  -0.6893  -0.6200 
19    C10      0.7040  -36.9790   21.1800 C.ar    1  LIG   0.6480   0.4100 
20    N4       1.7670  -37.6730   21.8260 N.pl3   1  LIG  -0.6924  -0.3690 
21    C11      2.7540  -36.8570   22.5840 C.ar    1  LIG   0.5805   0.4100 
22    C12      2.9040  -34.5090   25.6010 C.3     1  LIG  -0.0620   0.1435 
23    H7       2.2235  -33.7630   25.2820 H       1  LIG   0.0570   0.0000 
24    H8       2.4436  -35.1154   26.3371 H       1  LIG   0.0495   0.0000 
25    H9       3.7654  -34.0491   26.0108 H       1  LIG   0.0519   0.0000 
26    O1      -1.2400  -35.9060   23.9770 O.2     1  LIG  -0.6361  -0.5700 
27    C13      2.3440  -38.7570   21.0360 C.3     1  LIG   0.1354   0.0690 
28    H10      3.1238  -38.3754   20.4296 H       1  LIG   0.0981   0.1000 
29    C14      2.9380  -39.8900   21.8010 C.3     1  LIG  -0.1181  -0.2000 
30    H11      3.8890  -40.1268   21.3997 H       1  LIG   0.0732   0.1000 
31    H12      3.0430  -39.6129   22.8177 H       1  LIG   0.0789   0.1000 
32    C15      1.6390  -40.0610   21.0880 C.3     1  LIG  -0.1196  -0.2000 
33    H13      0.6832  -39.9283   21.5242 H       1  LIG   0.0807   0.1000 
34    H14      1.5292  -40.4423   20.1061 H       1  LIG   0.0733   0.1000 
@<TRIPOS>BOND
1     2     1     ar
2     3     2     1
3     4     2     ar
4     5     4     1
5     6     4     ar
6     7     6     ar
7     8     7     1
8     9     8     1
9     10    8     1
10    11    10    1
11    12    11    ar
12    13    12    1
13    14    12    ar
14    15    14    1
15    16    14    ar
16    17    16    1
17    18    16    ar
18    19    11    ar
19    19    18    ar
20    20    19    1
21    21    1     ar
22    21    7     ar
23    21    20    1
24    22    6     1
25    23    22    1
26    24    22    1
27    25    22    1
28    26    10    2
29    27    20    1
30    28    27    1
31    29    27    1
32    30    29    1
33    31    29    1
34    32    27    1
35    32    29    1
36    33    32    1
37    34    32    1
@<TRIPOS>SUBSTRUCTURE
1   LIG    1    
 
########## Name        : 1VRT.lig
########## Description : AM1BCC_CHARGES =  -0.0002 ORIGINAL_CHARGES =  -0.0000

@<TRIPOS>MOLECULE
1VRT.lig
34    37    1     0     0    
SMALL
USER_CHARGES
@<TRIPOS>ATOM
1     N1       4.0540  -36.9310   22.2210 N.ar    1  LIG  -0.6650  -0.6200 
2     C1       4.9660  -36.2380   22.9390 C.ar    1  LIG   0.3947   0.1600 
3     H1       6.0082  -36.2811   22.6707 H       1  LIG   0.0281   0.1500 
4     C2       4.6240  -35.4500   24.0360 C.ar    1  LIG  -0.2334  -0.1500 
5     H2       5.3884  -34.9151   24.5740 H       1  LIG   0.1480   0.1500 
6     C3       3.3050  -35.3690   24.4150 C.ar    1  LIG  -0.0698  -0.1435 
7     C4       2.3460  -36.0770   23.6860 C.ar    1  LIG  -0.0398   0.1170 
8     N2       0.9890  -36.0280   24.1030 N.am    1  LIG  -0.4596  -0.5470 
9     H3       0.7643  -35.9928   25.0860 H       1  LIG   0.3311   0.3700 
10    C5      -0.1450  -36.0180   23.4080 C.2     1  LIG   0.7361   0.5438 
11    C6      -0.1190  -36.0770   21.8860 C.ar    1  LIG  -0.2550   0.0862 
12    C7      -1.1230  -35.3990   21.1890 C.ar    1  LIG  -0.0321  -0.1500 
13    H4      -1.7552  -34.6955   21.7041 H       1  LIG   0.1623   0.1500 
14    C8      -1.2960  -35.6300   19.8690 C.ar    1  LIG  -0.2723  -0.1500 
15    H5      -2.0662  -35.1073   19.3273 H       1  LIG   0.1522   0.1500 
16    C9      -0.4670  -36.5450   19.2400 C.ar    1  LIG   0.4373   0.1600 
17    H6      -0.5947  -36.7554   18.1915 H       1  LIG   0.0280   0.1500 
18    N3       0.5220  -37.2120   19.8740 N.ar    1  LIG  -0.6893  -0.6200 
19    C10      0.7040  -36.9790   21.1800 C.ar    1  LIG   0.6480   0.4100 
20    N4       1.7670  -37.6730   21.8260 N.pl3   1  LIG  -0.6924  -0.3690 
21    C11      2.7540  -36.8570   22.5840 C.ar    1  LIG   0.5805   0.4100 
22    C12      2.9040  -34.5090   25.6010 C.3     1  LIG  -0.0620   0.1435 
23    H7       2.2235  -33.7630   25.2820 H       1  LIG   0.0570   0.0000 
24    H8       2.4436  -35.1154   26.3371 H       1  LIG   0.0495   0.0000 
25    H9       3.7654  -34.0491   26.0108 H       1  LIG   0.0519   0.0000 
26    O1      -1.2400  -35.9060   23.9770 O.2     1  LIG  -0.6361  -0.5700 
27    C13      2.3440  -38.7570   21.0360 C.3     1  LIG   0.1354   0.0690 
28    H10      3.1238  -38.3754   20.4296 H       1  LIG   0.0981   0.1000 
29    C14      2.9380  -39.8900   21.8010 C.3     1  LIG  -0.1181  -0.2000 
30    H11      3.8890  -40.1268   21.3997 H       1  LIG   0.0732   0.1000 
31    H12      3.0430  -39.6129   22.8177 H       1  LIG   0.0789   0.1000 
32    C15      1.6390  -40.0610   21.0880 C.3     1  LIG  -0.1196  -0.2000 
33    H13      0.6832  -39.9283   21.5242 H       1  LIG   0.0807   0.1000 
34    H14      1.5292  -40.4423   20.1061 H       1  LIG   0.0733   0.1000 
@<TRIPOS>BOND
1     2     1     ar
2     3     2     1
3     4     2     ar
4     5     4     1
5     6     4     ar
6     7     6     ar
7     8     7     1
8     9     8     1
9     10    8     1
10    11    10    1
11    12    11    ar
12    13    12    1
13    14    12    ar
14    15    14    1
15    16    14    ar
16    17    16    1
17    18    16    ar
18    19    11    ar
19    19    18    ar
20    20    19    1
21    21    1     ar
22    21    7     ar
23    21    20    1
24    22    6     1
25    23    22    1
26    24    22    1
27    25    22    1
28    26    10    2
29    27    20    1
30    28    27    1
31    29    27    1
32    30    29    1
33    31    29    1
34    32    27    1
35    32    29    1
36    33    32    1
37    34    32    1
@<TRIPOS>SUBSTRUCTURE
1   LIG    1    
 
########## Name        : 1VRT.lig
########## Description : AM1BCC_CHARGES =  -0.0002 ORIGINAL_CHARGES =  -0.0000

@<TRIPOS>MOLECULE
1VRT.lig
34    37    1     0     0    
SMALL
USER_CHARGES
@<TRIPOS>ATOM
1     N1       4.0540  -36.9310   22.2210 N.ar    1  LIG  -0.6650  -0.6200 
2     C1       4.9660  -36.2380   22.9390 C.ar    1  LIG   0.3947   0.1600 
3     H1       6.0082  -36.2811   22.6707 H       1  LIG   0.0281   0.1500 
4     C2       4.6240  -35.4500   24.0360 C.ar    1  LIG  -0.2334  -0.1500 
5     H2       5.3884  -34.9151   24.5740 H       1  LIG   0.1480   0.1500 
6     C3       3.3050  -35.3690   24.4150 C.ar    1  LIG  -0.0698  -0.1435 
7     C4       2.3460  -36.0770   23.6860 C.ar    1  LIG  -0.0398   0.1170 
8     N2       0.9890  -36.0280   24.1030 N.am    1  LIG  -0.4596  -0.5470 
9     H3       0.7643  -35.9928   25.0860 H       1  LIG   0.3311   0.3700 
10    C5      -0.1450  -36.0180   23.4080 C.2     1  LIG   0.7361   0.5438 
11    C6      -0.1190  -36.0770   21.8860 C.ar    1  LIG  -0.2550   0.0862 
12    C7      -1.1230  -35.3990   21.1890 C.ar    1  LIG  -0.0321  -0.1500 
13    H4      -1.7552  -34.6955   21.7041 H       1  LIG   0.1623   0.1500 
14    C8      -1.2960  -35.6300   19.8690 C.ar    1  LIG  -0.2723  -0.1500 
15    H5      -2.0662  -35.1073   19.3273 H       1  LIG   0.1522   0.1500 
16    C9      -0.4670  -36.5450   19.2400 C.ar    1  LIG   0.4373   0.1600 
17    H6      -0.5947  -36.7554   18.1915 H       1  LIG   0.0280   0.1500 
18    N3       0.5220  -37.2120   19.8740 N.ar    1  LIG  -0.6893  -0.6200 
19    C10      0.7040  -36.9790   21.1800 C.ar    1  LIG   0.6480   0.4100 
20    N4       1.7670  -37.6730   21.8260 N.pl3   1  LIG  -0.6924  -0.3690 
21    C11      2.7540  -36.8570   22.5840 C.ar    1  LIG   0.5805   0.4100 
22    C12      2.9040  -34.5090   25.6010 C.3     1  LIG  -0.0620   0.1435 
23    H7       2.2235  -33.7630   25.2820 H       1  LIG   0.0570   0.0000 
24    H8       2.4436  -35.1154   26.3371 H       1  LIG   0.0495   0.0000 
25    H9       3.7654  -34.0491   26.0108 H       1  LIG   0.0519   0.0000 
26    O1      -1.2400  -35.9060   23.9770 O.2     1  LIG  -0.6361  -0.5700 
27    C13      2.3440  -38.7570   21.0360 C.3     1  LIG   0.1354   0.0690 
28    H10      3.1238  -38.3754   20.4296 H       1  LIG   0.0981   0.1000 
29    C14      2.9380  -39.8900   21.8010 C.3     1  LIG  -0.1181  -0.2000 
30    H11      3.8890  -40.1268   21.3997 H       1  LIG   0.0732   0.1000 
31    H12      3.0430  -39.6129   22.8177 H       1  LIG   0.0789   0.1000 
32    C15      1.6390  -40.0610   21.0880 C.3     1  LIG  -0.1196  -0.2000 
33    H13      0.6832  -39.9283   21.5242 H       1  LIG   0.0807   0.1000 
34    H14      1.5292  -40.4423   20.1061 H       1  LIG   0.0733   0.1000 
@<TRIPOS>BOND
1     2     1     ar
2     3     2     1
3     4     2     ar
4     5     4     1
5     6     4     ar
6     7     6     ar
7     8     7     1
8     9     8     1
9     10    8     1
10    11    10    1
11    12    11    ar
12    13    12    1
13    14    12    ar
14    15    14    1
15    16    14    ar
16    17    16    1
17    18    16    ar
18    19    11    ar
19    19    18    ar
20    20    19    1
21    21    1     ar
22    21    7     ar
23    21    20    1
24    22    6     1
25    23    22    1
26    24    22    1
27    25    22    1
28    26    10    2
29    27    20    1
30    28    27    1
31    29    27    1
32    30    29    1
33    31    29    1
34    32    27    1
35    32    29    1
36    33    32    1
37    34    32    1
@<TRIPOS>SUBSTRUCTURE
1   LIG    1    
 
########## Name        : 1VRT.lig
########## Description : AM1BCC_CHARGES =  -0.0002 ORIGINAL_CHARGES =  -0.0000

@<TRIPOS>MOLECULE
1VRT.lig
34    37    1     0     0    
SMALL
USER_CHARGES
@<TRIPOS>ATOM
1     N1       4.0540  -36.9310   22.2210 N.ar    1  LIG  -0.6650  -0.6200 
2     C1       4.9660  -36.2380   22.9390 C.ar    1  LIG   0.3947   0.1600 
3     H1       6.0082  -36.2811   22.6707 H       1  LIG   0.0281   0.1500 
4     C2       4.6240  -35.4500   24.0360 C.ar    1  LIG  -0.2334  -0.1500 
5     H2       5.3884  -34.9151   24.5740 H       1  LIG   0.1480   0.1500 
6     C3       3.3050  -35.3690   24.4150 C.ar    1  LIG  -0.0698  -0.1435 
7     C4       2.3460  -36.0770   23.6860 C.ar    1  LIG  -0.0398   0.1170 
8     N2       0.9890  -36.0280   24.1030 N.am    1  LIG  -0.4596  -0.5470 
9     H3       0.7643  -35.9928   25.0860 H       1  LIG   0.3311   0.3700 
10    C5      -0.1450  -36.0180   23.4080 C.2     1  LIG   0.7361   0.5438 
11    C6      -0.1190  -36.0770   21.8860 C.ar    1  LIG  -0.2550   0.0862 
12    C7      -1.1230  -35.3990   21.1890 C.ar    1  LIG  -0.0321  -0.1500 
13    H4      -1.7552  -34.6955   21.7041 H       1  LIG   0.1623   0.1500 
14    C8      -1.2960  -35.6300   19.8690 C.ar    1  LIG  -0.2723  -0.1500 
15    H5      -2.0662  -35.1073   19.3273 H       1  LIG   0.1522   0.1500 
16    C9      -0.4670  -36.5450   19.2400 C.ar    1  LIG   0.4373   0.1600 
17    H6      -0.5947  -36.7554   18.1915 H       1  LIG   0.0280   0.1500 
18    N3       0.5220  -37.2120   19.8740 N.ar    1  LIG  -0.6893  -0.6200 
19    C10      0.7040  -36.9790   21.1800 C.ar    1  LIG   0.6480   0.4100 
20    N4       1.7670  -37.6730   21.8260 N.pl3   1  LIG  -0.6924  -0.3690 
21    C11      2.7540  -36.8570   22.5840 C.ar    1  LIG   0.5805   0.4100 
22    C12      2.9040  -34.5090   25.6010 C.3     1  LIG  -0.0620   0.1435 
23    H7       2.2235  -33.7630   25.2820 H       1  LIG   0.0570   0.0000 
24    H8       2.4436  -35.1154   26.3371 H       1  LIG   0.0495   0.0000 
25    H9       3.7654  -34.0491   26.0108 H       1  LIG   0.0519   0.0000 
26    O1      -1.2400  -35.9060   23.9770 O.2     1  LIG  -0.6361  -0.5700 
27    C13      2.3440  -38.7570   21.0360 C.3     1  LIG   0.1354   0.0690 
28    H10      3.1238  -38.3754   20.4296 H       1  LIG   0.0981   0.1000 
29    C14      2.9380  -39.8900   21.8010 C.3     1  LIG  -0.1181  -0.2000 
30    H11      3.8890  -40.1268   21.3997 H       1  LIG   0.0732   0.1000 
31    H12      3.0430  -39.6129   22.8177 H       1  LIG   0.0789   0.1000 
32    C15      1.6390  -40.0610   21.0880 C.3     1  LIG  -0.1196  -0.2000 
33    H13      0.6832  -39.9283   21.5242 H       1  LIG   0.0807   0.1000 
34    H14      1.5292  -40.4423   20.1061 H       1  LIG   0.0733   0.1000 
@<TRIPOS>BOND
1     2     1     ar
2     3     2     1
3     4     2     ar
4     5     4     1
5     6     4     ar
6     7     6     ar
7     8     7     1
8     9     8     1
9     10    8     1
10    11    10    1
11    12    11    ar
12    13    12    1
13    14    12    ar
14    15    14    1
15    16    14    ar
16    17    16    1
17    18    16    ar
18    19    11    ar
19    19    18    ar
20    20    19    1
21    21    1     ar
22    21    7     ar
23    21    20    1
24    22    6     1
25    23    22    1
26    24    22    1
27    25    22    1
28    26    10    2
29    27    20    1
30    28    27    1
31    29    27    1
32    30    29    1
33    31    29    1
34    32    27    1
35    32    29    1
36    33    32    1
37    34    32    1
@<TRIPOS>SUBSTRUCTURE
1   LIG    1    
 
########## Name        : 1VRT.lig
########## Description : AM1BCC_CHARGES =  -0.0002 ORIGINAL_CHARGES =  -0.0000

@<TRIPOS>MOLECULE
1VRT.lig
34    37    1     0     0    
SMALL
USER_CHARGES
@<TRIPOS>ATOM
1     N1       4.0540  -36.9310   22.2210 N.ar    1  LIG  -0.6650  -0.6200 
2     C1       4.9660  -36.2380   22.9390 C.ar    1  LIG   0.3947   0.1600 
3     H1       6.0082  -36.2811   22.6707 H       1  LIG   0.0281   0.1500 
4     C2       4.6240  -35.4500   24.0360 C.ar    1  LIG  -0.2334  -0.1500 
5     H2       5.3884  -34.9151   24.5740 H       1  LIG   0.1480   0.1500 
6     C3       3.3050  -35.3690   24.4150 C.ar    1  LIG  -0.0698  -0.1435 
7     C4       2.3460  -36.0770   23.6860 C.ar    1  LIG  -0.0398   0.1170 
8     N2       0.9890  -36.0280   24.1030 N.am    1  LIG  -0.4596  -0.5470 
9     H3       0.7643  -35.9928   25.0860 H       1  LIG   0.3311   0.3700 
10    C5      -0.1450  -36.0180   23.4080 C.2     1  LIG   0.7361   0.5438 
11    C6      -0.1190  -36.0770   21.8860 C.ar    1  LIG  -0.2550   0.0862 
12    C7      -1.1230  -35.3990   21.1890 C.ar    1  LIG  -0.0321  -0.1500 
13    H4      -1.7552  -34.6955   21.7041 H       1  LIG   0.1623   0.1500 
14    C8      -1.2960  -35.6300   19.8690 C.ar    1  LIG  -0.2723  -0.1500 
15    H5      -2.0662  -35.1073   19.3273 H       1  LIG   0.1522   0.1500 
16    C9      -0.4670  -36.5450   19.2400 C.ar    1  LIG   0.4373   0.1600 
17    H6      -0.5947  -36.7554   18.1915 H       1  LIG   0.0280   0.1500 
18    N3       0.5220  -37.2120   19.8740 N.ar    1  LIG  -0.6893  -0.6200 
19    C10      0.7040  -36.9790   21.1800 C.ar    1  LIG   0.6480   0.4100 
20    N4       1.7670  -37.6730   21.8260 N.pl3   1  LIG  -0.6924  -0.3690 
21    C11      2.7540  -36.8570   22.5840 C.ar    1  LIG   0.5805   0.4100 
22    C12      2.9040  -34.5090   25.6010 C.3     1  LIG  -0.0620   0.1435 
23    H7       2.2235  -33.7630   25.2820 H       1  LIG   0.0570   0.0000 
24    H8       2.4436  -35.1154   26.3371 H       1  LIG   0.0495   0.0000 
25    H9       3.7654  -34.0491   26.0108 H       1  LIG   0.0519   0.0000 
26    O1      -1.2400  -35.9060   23.9770 O.2     1  LIG  -0.6361  -0.5700 
27    C13      2.3440  -38.7570   21.0360 C.3     1  LIG   0.1354   0.0690 
28    H10      3.1238  -38.3754   20.4296 H       1  LIG   0.0981   0.1000 
29    C14      2.9380  -39.8900   21.8010 C.3     1  LIG  -0.1181  -0.2000 
30    H11      3.8890  -40.1268   21.3997 H       1  LIG   0.0732   0.1000 
31    H12      3.0430  -39.6129   22.8177 H       1  LIG   0.0789   0.1000 
32    C15      1.6390  -40.0610   21.0880 C.3     1  LIG  -0.1196  -0.2000 
33    H13      0.6832  -39.9283   21.5242 H       1  LIG   0.0807   0.1000 
34    H14      1.5292  -40.4423   20.1061 H       1  LIG   0.0733   0.1000 
@<TRIPOS>BOND
1     2     1     ar
2     3     2     1
3     4     2     ar
4     5     4     1
5     6     4     ar
6     7     6     ar
7     8     7     1
8     9     8     1
9     10    8     1
10    11    10    1
11    12    11    ar
12    13    12    1
13    14    12    ar
14    15    14    1
15    16    14    ar
16    17    16    1
17    18    16    ar
18    19    11    ar
19    19    18    ar
20    20    19    1
21    21    1     ar
22    21    7     ar
23    21    20    1
24    22    6     1
25    23    22    1
26    24    22    1
27    25    22    1
28    26    10    2
29    27    20    1
30    28    27    1
31    29    27    1
32    30    29    1
33    31    29    1
34    32    27    1
35    32    29    1
36    33    32    1
37    34    32    1
@<TRIPOS>SUBSTRUCTURE
1   LIG    1    
 
########## Name        : 1VRT.lig
########## Description : AM1BCC_CHARGES =  -0.0002 ORIGINAL_CHARGES =  -0.0000

@<TRIPOS>MOLECULE
1VRT.lig
34    37    1     0     0    
SMALL
USER_CHARGES
@<TRIPOS>ATOM
1     N1       4.0540  -36.9310   22.2210 N.ar    1  LIG  -0.6650  -0.6200 
2     C1       4.9660  -36.2380   22.9390 C.ar    1  LIG   0.3947   0.1600 
3     H1       6.0082  -36.2811   22.6707 H       1  LIG   0.0281   0.1500 
4     C2       4.6240  -35.4500   24.0360 C.ar    1  LIG  -0.2334  -0.1500 
5     H2       5.3884  -34.9151   24.5740 H       1  LIG   0.1480   0.1500 
6     C3       3.3050  -35.3690   24.4150 C.ar    1  LIG  -0.0698  -0.1435 
7     C4       2.3460  -36.0770   23.6860 C.ar    1  LIG  -0.0398   0.1170 
8     N2       0.9890  -36.0280   24.1030 N.am    1  LIG  -0.4596  -0.5470 
9     H3       0.7643  -35.9928   25.0860 H       1  LIG   0.3311   0.3700 
10    C5      -0.1450  -36.0180   23.4080 C.2     1  LIG   0.7361   0.5438 
11    C6      -0.1190  -36.0770   21.8860 C.ar    1  LIG  -0.2550   0.0862 
12    C7      -1.1230  -35.3990   21.1890 C.ar    1  LIG  -0.0321  -0.1500 
13    H4      -1.7552  -34.6955   21.7041 H       1  LIG   0.1623   0.1500 
14    C8      -1.2960  -35.6300   19.8690 C.ar    1  LIG  -0.2723  -0.1500 
15    H5      -2.0662  -35.1073   19.3273 H       1  LIG   0.1522   0.1500 
16    C9      -0.4670  -36.5450   19.2400 C.ar    1  LIG   0.4373   0.1600 
17    H6      -0.5947  -36.7554   18.1915 H       1  LIG   0.0280   0.1500 
18    N3       0.5220  -37.2120   19.8740 N.ar    1  LIG  -0.6893  -0.6200 
19    C10      0.7040  -36.9790   21.1800 C.ar    1  LIG   0.6480   0.4100 
20    N4       1.7670  -37.6730   21.8260 N.pl3   1  LIG  -0.6924  -0.3690 
21    C11      2.7540  -36.8570   22.5840 C.ar    1  LIG   0.5805   0.4100 
22    C12      2.9040  -34.5090   25.6010 C.3     1  LIG  -0.0620   0.1435 
23    H7       2.2235  -33.7630   25.2820 H       1  LIG   0.0570   0.0000 
24    H8       2.4436  -35.1154   26.3371 H       1  LIG   0.0495   0.0000 
25    H9       3.7654  -34.0491   26.0108 H       1  LIG   0.0519   0.0000 
26    O1      -1.2400  -35.9060   23.9770 O.2     1  LIG  -0.6361  -0.5700 
27    C13      2.3440  -38.7570   21.0360 C.3     1  LIG   0.1354   0.0690 
28    H10      3.1238  -38.3754   20.4296 H       1  LIG   0.0981   0.1000 
29    C14      2.9380  -39.8900   21.8010 C.3     1  LIG  -0.1181  -0.2000 
30    H11      3.8890  -40.1268   21.3997 H       1  LIG   0.0732   0.1000 
31    H12      3.0430  -39.6129   22.8177 H       1  LIG   0.0789   0.1000 
32    C15      1.6390  -40.0610   21.0880 C.3     1  LIG  -0.1196  -0.2000 
33    H13      0.6832  -39.9283   21.5242 H       1  LIG   0.0807   0.1000 
34    H14      1.5292  -40.4423   20.1061 H       1  LIG   0.0733   0.1000 
@<TRIPOS>BOND
1     2     1     ar
2     3     2     1
3     4     2     ar
4     5     4     1
5     6     4     ar
6     7     6     ar
7     8     7     1
8     9     8     1
9     10    8     1
10    11    10    1
11    12    11    ar
12    13    12    1
13    14    12    ar
14    15    14    1
15    16    14    ar
16    17    16    1
17    18    16    ar
18    19    11    ar
19    19    18    ar
20    20    19    1
21    21    1     ar
22    21    7     ar
23    21    20    1
24    22    6     1
25    23    22    1
26    24    22    1
27    25    22    1
28    26    10    2
29    27    20    1
30    28    27    1
31    29    27    1
32    30    29    1
33    31    29    1
34    32    27    1
35    32    29    1
36    33    32    1
37    34    32    1
@<TRIPOS>SUBSTRUCTURE
1   LIG    1    
 
########## Name        : 1VRT.lig
########## Description : AM1BCC_CHARGES =  -0.0002 ORIGINAL_CHARGES =  -0.0000

@<TRIPOS>MOLECULE
1VRT.lig
34    37    1     0     0    
SMALL
USER_CHARGES
@<TRIPOS>ATOM
1     N1       4.0540  -36.9310   22.2210 N.ar    1  LIG  -0.6650  -0.6200 
2     C1       4.9660  -36.2380   22.9390 C.ar    1  LIG   0.3947   0.1600 
3     H1       6.0082  -36.2811   22.6707 H       1  LIG   0.0281   0.1500 
4     C2       4.6240  -35.4500   24.0360 C.ar    1  LIG  -0.2334  -0.1500 
5     H2       5.3884  -34.9151   24.5740 H       1  LIG   0.1480   0.1500 
6     C3       3.3050  -35.3690   24.4150 C.ar    1  LIG  -0.0698  -0.1435 
7     C4       2.3460  -36.0770   23.6860 C.ar    1  LIG  -0.0398   0.1170 
8     N2       0.9890  -36.0280   24.1030 N.am    1  LIG  -0.4596  -0.5470 
9     H3       0.7643  -35.9928   25.0860 H       1  LIG   0.3311   0.3700 
10    C5      -0.1450  -36.0180   23.4080 C.2     1  LIG   0.7361   0.5438 
11    C6      -0.1190  -36.0770   21.8860 C.ar    1  LIG  -0.2550   0.0862 
12    C7      -1.1230  -35.3990   21.1890 C.ar    1  LIG  -0.0321  -0.1500 
13    H4      -1.7552  -34.6955   21.7041 H       1  LIG   0.1623   0.1500 
14    C8      -1.2960  -35.6300   19.8690 C.ar    1  LIG  -0.2723  -0.1500 
15    H5      -2.0662  -35.1073   19.3273 H       1  LIG   0.1522   0.1500 
16    C9      -0.4670  -36.5450   19.2400 C.ar    1  LIG   0.4373   0.1600 
17    H6      -0.5947  -36.7554   18.1915 H       1  LIG   0.0280   0.1500 
18    N3       0.5220  -37.2120   19.8740 N.ar    1  LIG  -0.6893  -0.6200 
19    C10      0.7040  -36.9790   21.1800 C.ar    1  LIG   0.6480   0.4100 
20    N4       1.7670  -37.6730   21.8260 N.pl3   1  LIG  -0.6924  -0.3690 
21    C11      2.7540  -36.8570   22.5840 C.ar    1  LIG   0.5805   0.4100 
22    C12      2.9040  -34.5090   25.6010 C.3     1  LIG  -0.0620   0.1435 
23    H7       2.2235  -33.7630   25.2820 H       1  LIG   0.0570   0.0000 
24    H8       2.4436  -35.1154   26.3371 H       1  LIG   0.0495   0.0000 
25    H9       3.7654  -34.0491   26.0108 H       1  LIG   0.0519   0.0000 
26    O1      -1.2400  -35.9060   23.9770 O.2     1  LIG  -0.6361  -0.5700 
27    C13      2.3440  -38.7570   21.0360 C.3     1  LIG   0.1354   0.0690 
28    H10      3.1238  -38.3754   20.4296 H       1  LIG   0.0981   0.1000 
29    C14      2.9380  -39.8900   21.8010 C.3     1  LIG  -0.1181  -0.2000 
30    H11      3.8890  -40.1268   21.3997 H       1  LIG   0.0732   0.1000 
31    H12      3.0430  -39.6129   22.8177 H       1  LIG   0.0789   0.1000 
32    C15      1.6390  -40.0610   21.0880 C.3     1  LIG  -0.1196  -0.2000 
33    H13      0.6832  -39.9283   21.5242 H       1  LIG   0.0807   0.1000 
34    H14      1.5292  -40.4423   20.1061 H       1  LIG   0.0733   0.1000 
@<TRIPOS>BOND
1     2     1     ar
2     3     2     1
3     4     2     ar
4     5     4     1
5     6     4     ar
6     7     6     ar
7     8     7     1
8     9     8     1
9     10    8     1
10    11    10    1
11    12    11    ar
12    13    12    1
13    14    12    ar
14    15    14    1
15    16    14    ar
16    17    16    1
17    18    16    ar
18    19    11    ar
19    19    18    ar
20    20    19    1
21    21    1     ar
22    21    7     ar
23    21    20    1
24    22    6     1
25    23    22    1
26    24    22    1
27    25    22    1
28    26    10    2
29    27    20    1
30    28    27    1
31    29    27    1
32    30    29    1
33    31    29    1
34    32    27    1
35    32    29    1
36    33    32    1
37    34    32    1
@<TRIPOS>SUBSTRUCTURE
1   LIG    1    
 
########## Name        : 1VRT.lig
########## Description : AM1BCC_CHARGES =  -0.0002 ORIGINAL_CHARGES =  -0.0000

@<TRIPOS>MOLECULE
1VRT.lig
34    37    1     0     0    
SMALL
USER_CHARGES
@<TRIPOS>ATOM
1     N1       4.0540  -36.9310   22.2210 N.ar    1  LIG  -0.6650  -0.6200 
2     C1       4.9660  -36.2380   22.9390 C.ar    1  LIG   0.3947   0.1600 
3     H1       6.0082  -36.2811   22.6707 H       1  LIG   0.0281   0.1500 
4     C2       4.6240  -35.4500   24.0360 C.ar    1  LIG  -0.2334  -0.1500 
5     H2       5.3884  -34.9151   24.5740 H       1  LIG   0.1480   0.1500 
6     C3       3.3050  -35.3690   24.4150 C.ar    1  LIG  -0.0698  -0.1435 
7     C4       2.3460  -36.0770   23.6860 C.ar    1  LIG  -0.0398   0.1170 
8     N2       0.9890  -36.0280   24.1030 N.am    1  LIG  -0.4596  -0.5470 
9     H3       0.7643  -35.9928   25.0860 H       1  LIG   0.3311   0.3700 
10    C5      -0.1450  -36.0180   23.4080 C.2     1  LIG   0.7361   0.5438 
11    C6      -0.1190  -36.0770   21.8860 C.ar    1  LIG  -0.2550   0.0862 
12    C7      -1.1230  -35.3990   21.1890 C.ar    1  LIG  -0.0321  -0.1500 
13    H4      -1.7552  -34.6955   21.7041 H       1  LIG   0.1623   0.1500 
14    C8      -1.2960  -35.6300   19.8690 C.ar    1  LIG  -0.2723  -0.1500 
15    H5      -2.0662  -35.1073   19.3273 H       1  LIG   0.1522   0.1500 
16    C9      -0.4670  -36.5450   19.2400 C.ar    1  LIG   0.4373   0.1600 
17    H6      -0.5947  -36.7554   18.1915 H       1  LIG   0.0280   0.1500 
18    N3       0.5220  -37.2120   19.8740 N.ar    1  LIG  -0.6893  -0.6200 
19    C10      0.7040  -36.9790   21.1800 C.ar    1  LIG   0.6480   0.4100 
20    N4       1.7670  -37.6730   21.8260 N.pl3   1  LIG  -0.6924  -0.3690 
21    C11      2.7540  -36.8570   22.5840 C.ar    1  LIG   0.5805   0.4100 
22    C12      2.9040  -34.5090   25.6010 C.3     1  LIG  -0.0620   0.1435 
23    H7       2.2235  -33.7630   25.2820 H       1  LIG   0.0570   0.0000 
24    H8       2.4436  -35.1154   26.3371 H       1  LIG   0.0495   0.0000 
25    H9       3.7654  -34.0491   26.0108 H       1  LIG   0.0519   0.0000 
26    O1      -1.2400  -35.9060   23.9770 O.2     1  LIG  -0.6361  -0.5700 
27    C13      2.3440  -38.7570   21.0360 C.3     1  LIG   0.1354   0.0690 
28    H10      3.1238  -38.3754   20.4296 H       1  LIG   0.0981   0.1000 
29    C14      2.9380  -39.8900   21.8010 C.3     1  LIG  -0.1181  -0.2000 
30    H11      3.8890  -40.1268   21.3997 H       1  LIG   0.0732   0.1000 
31    H12      3.0430  -39.6129   22.8177 H       1  LIG   0.0789   0.1000 
32    C15      1.6390  -40.0610   21.0880 C.3     1  LIG  -0.1196  -0.2000 
33    H13      0.6832  -39.9283   21.5242 H       1  LIG   0.0807   0.1000 
34    H14      1.5292  -40.4423   20.1061 H       1  LIG   0.0733   0.1000 
@<TRIPOS>BOND
1     2     1     ar
2     3     2     1
3     4     2     ar
4     5     4     1
5     6     4     ar
6     7     6     ar
7     8     7     1
8     9     8     1
9     10    8     1
10    11    10    1
11    12    11    ar
12    13    12    1
13    14    12    ar
14    15    14    1
15    16    14    ar
16    17    16    1
17    18    16    ar
18    19    11    ar
19    19    18    ar
20    20    19    1
21    21    1     ar
22    21    7     ar
23    21    20    1
24    22    6     1
25    23    22    1
26    24    22    1
27    25    22    1
28    26    10    2
29    27    20    1
30    28    27    1
31    29    27    1
32    30    29    1
33    31    29    1
34    32    27    1
35    32    29    1
36    33    32    1
37    34    32    1
@<TRIPOS>SUBSTRUCTURE
1   LIG    1    
 
########## Name        : 1VRT.lig
########## Description : AM1BCC_CHARGES =  -0.0002 ORIGINAL_CHARGES =  -0.0000

@<TRIPOS>MOLECULE
1VRT.lig
34    37    1     0     0    
SMALL
USER_CHARGES
@<TRIPOS>ATOM
1     N1       4.0540  -36.9310   22.2210 N.ar    1  LIG  -0.6650  -0.6200 
2     C1       4.9660  -36.2380   22.9390 C.ar    1  LIG   0.3947   0.1600 
3     H1       6.0082  -36.2811   22.6707 H       1  LIG   0.0281   0.1500 
4     C2       4.6240  -35.4500   24.0360 C.ar    1  LIG  -0.2334  -0.1500 
5     H2       5.3884  -34.9151   24.5740 H       1  LIG   0.1480   0.1500 
6     C3       3.3050  -35.3690   24.4150 C.ar    1  LIG  -0.0698  -0.1435 
7     C4       2.3460  -36.0770   23.6860 C.ar    1  LIG  -0.0398   0.1170 
8     N2       0.9890  -36.0280   24.1030 N.am    1  LIG  -0.4596  -0.5470 
9     H3       0.7643  -35.9928   25.0860 H       1  LIG   0.3311   0.3700 
10    C5      -0.1450  -36.0180   23.4080 C.2     1  LIG   0.7361   0.5438 
11    C6      -0.1190  -36.0770   21.8860 C.ar    1  LIG  -0.2550   0.0862 
12    C7      -1.1230  -35.3990   21.1890 C.ar    1  LIG  -0.0321  -0.1500 
13    H4      -1.7552  -34.6955   21.7041 H       1  LIG   0.1623   0.1500 
14    C8      -1.2960  -35.6300   19.8690 C.ar    1  LIG  -0.2723  -0.1500 
15    H5      -2.0662  -35.1073   19.3273 H       1  LIG   0.1522   0.1500 
16    C9      -0.4670  -36.5450   19.2400 C.ar    1  LIG   0.4373   0.1600 
17    H6      -0.5947  -36.7554   18.1915 H       1  LIG   0.0280   0.1500 
18    N3       0.5220  -37.2120   19.8740 N.ar    1  LIG  -0.6893  -0.6200 
19    C10      0.7040  -36.9790   21.1800 C.ar    1  LIG   0.6480   0.4100 
20    N4       1.7670  -37.6730   21.8260 N.pl3   1  LIG  -0.6924  -0.3690 
21    C11      2.7540  -36.8570   22.5840 C.ar    1  LIG   0.5805   0.4100 
22    C12      2.9040  -34.5090   25.6010 C.3     1  LIG  -0.0620   0.1435 
23    H7       2.2235  -33.7630   25.2820 H       1  LIG   0.0570   0.0000 
24    H8       2.4436  -35.1154   26.3371 H       1  LIG   0.0495   0.0000 
25    H9       3.7654  -34.0491   26.0108 H       1  LIG   0.0519   0.0000 
26    O1      -1.2400  -35.9060   23.9770 O.2     1  LIG  -0.6361  -0.5700 
27    C13      2.3440  -38.7570   21.0360 C.3     1  LIG   0.1354   0.0690 
28    H10      3.1238  -38.3754   20.4296 H       1  LIG   0.0981   0.1000 
29    C14      2.9380  -39.8900   21.8010 C.3     1  LIG  -0.1181  -0.2000 
30    H11      3.8890  -40.1268   21.3997 H       1  LIG   0.0732   0.1000 
31    H12      3.0430  -39.6129   22.8177 H       1  LIG   0.0789   0.1000 
32    C15      1.6390  -40.0610   21.0880 C.3     1  LIG  -0.1196  -0.2000 
33    H13      0.6832  -39.9283   21.5242 H       1  LIG   0.0807   0.1000 
34    H14      1.5292  -40.4423   20.1061 H       1  LIG   0.0733   0.1000 
@<TRIPOS>BOND
1     2     1     ar
2     3     2     1
3     4     2     ar
4     5     4     1
5     6     4     ar
6     7     6     ar
7     8     7     1
8     9     8     1
9     10    8     1
10    11    10    1
11    12    11    ar
12    13    12    1
13    14    12    ar
14    15    14    1
15    16    14    ar
16    17    16    1
17    18    16    ar
18    19    11    ar
19    19    18    ar
20    20    19    1
21    21    1     ar
22    21    7     ar
23    21    20    1
24    22    6     1
25    23    22    1
26    24    22    1
27    25    22    1
28    26    10    2
29    27    20    1
30    28    27    1
31    29    27    1
32    30    29    1
33    31    29    1
34    32    27    1
35    32    29    1
36    33    32    1
37    34    32    1
@<TRIPOS>SUBSTRUCTURE
1   LIG    1    
 
########## Name        : 1VRT.lig
########## Description : AM1BCC_CHARGES =  -0.0002 ORIGINAL_CHARGES =  -0.0000

@<TRIPOS>MOLECULE
1VRT.lig
34    37    1     0     0    
SMALL
USER_CHARGES
@<TRIPOS>ATOM
1     N1       4.0540  -36.9310   22.2210 N.ar    1  LIG  -0.6650  -0.6200 
2     C1       4.9660  -36.2380   22.9390 C.ar    1  LIG   0.3947   0.1600 
3     H1       6.0082  -36.2811   22.6707 H       1  LIG   0.0281   0.1500 
4     C2       4.6240  -35.4500   24.0360 C.ar    1  LIG  -0.2334  -0.1500 
5     H2       5.3884  -34.9151   24.5740 H       1  LIG   0.1480   0.1500 
6     C3       3.3050  -35.3690   24.4150 C.ar    1  LIG  -0.0698  -0.1435 
7     C4       2.3460  -36.0770   23.6860 C.ar    1  LIG  -0.0398   0.1170 
8     N2       0.9890  -36.0280   24.1030 N.am    1  LIG  -0.4596  -0.5470 
9     H3       0.7643  -35.9928   25.0860 H       1  LIG   0.3311   0.3700 
10    C5      -0.1450  -36.0180   23.4080 C.2     1  LIG   0.7361   0.5438 
11    C6      -0.1190  -36.0770   21.8860 C.ar    1  LIG  -0.2550   0.0862 
12    C7      -1.1230  -35.3990   21.1890 C.ar    1  LIG  -0.0321  -0.1500 
13    H4      -1.7552  -34.6955   21.7041 H       1  LIG   0.1623   0.1500 
14    C8      -1.2960  -35.6300   19.8690 C.ar    1  LIG  -0.2723  -0.1500 
15    H5      -2.0662  -35.1073   19.3273 H       1  LIG   0.1522   0.1500 
16    C9      -0.4670  -36.5450   19.2400 C.ar    1  LIG   0.4373   0.1600 
17    H6      -0.5947  -36.7554   18.1915 H       1  LIG   0.0280   0.1500 
18    N3       0.5220  -37.2120   19.8740 N.ar    1  LIG  -0.6893  -0.6200 
19    C10      0.7040  -36.9790   21.1800 C.ar    1  LIG   0.6480   0.4100 
20    N4       1.7670  -37.6730   21.8260 N.pl3   1  LIG  -0.6924  -0.3690 
21    C11      2.7540  -36.8570   22.5840 C.ar    1  LIG   0.5805   0.4100 
22    C12      2.9040  -34.5090   25.6010 C.3     1  LIG  -0.0620   0.1435 
23    H7       2.2235  -33.7630   25.2820 H       1  LIG   0.0570   0.0000 
24    H8       2.4436  -35.1154   26.3371 H       1  LIG   0.0495   0.0000 
25    H9       3.7654  -34.0491   26.0108 H       1  LIG   0.0519   0.0000 
26    O1      -1.2400  -35.9060   23.9770 O.2     1  LIG  -0.6361  -0.5700 
27    C13      2.3440  -38.7570   21.0360 C.3     1  LIG   0.1354   0.0690 
28    H10      3.1238  -38.3754   20.4296 H       1  LIG   0.0981   0.1000 
29    C14      2.9380  -39.8900   21.8010 C.3     1  LIG  -0.1181  -0.2000 
30    H11      3.8890  -40.1268   21.3997 H       1  LIG   0.0732   0.1000 
31    H12      3.0430  -39.6129   22.8177 H       1  LIG   0.0789   0.1000 
32    C15      1.6390  -40.0610   21.0880 C.3     1  LIG  -0.1196  -0.2000 
33    H13      0.6832  -39.9283   21.5242 H       1  LIG   0.0807   0.1000 
34    H14      1.5292  -40.4423   20.1061 H       1  LIG   0.0733   0.1000 
@<TRIPOS>BOND
1     2     1     ar
2     3     2     1
3     4     2     ar
4     5     4     1
5     6     4     ar
6     7     6     ar
7     8     7     1
8     9     8     1
9     10    8     1
10    11    10    1
11    12    11    ar
12    13    12    1
13    14    12    ar
14    15    14    1
15    16    14    ar
16    17    16    1
17    18    16    ar
18    19    11    ar
19    19    18    ar
20    20    19    1
21    21    1     ar
22    21    7     ar
23    21    20    1
24    22    6     1
25    23    22    1
26    24    22    1
27    25    22    1
28    26    10    2
29    27    20    1
30    28    27    1
31    29    27    1
32    30    29    1
33    31    29    1
34    32    27    1
35    32    29    1
36    33    32    1
37    34    32    1
@<TRIPOS>SUBSTRUCTURE
1   LIG    1    
 
########## Name        : 1VRT.lig
########## Description : AM1BCC_CHARGES =  -0.0002 ORIGINAL_CHARGES =  -0.0000

@<TRIPOS>MOLECULE
1VRT.lig
34    37    1     0     0    
SMALL
USER_CHARGES
@<TRIPOS>ATOM
1     N1       4.0540  -36.9310   22.2210 N.ar    1  LIG  -0.6650  -0.6200 
2     C1       4.9660  -36.2380   22.9390 C.ar    1  LIG   0.3947   0.1600 
3     H1       6.0082  -36.2811   22.6707 H       1  LIG   0.0281   0.1500 
4     C2       4.6240  -35.4500   24.0360 C.ar    1  LIG  -0.2334  -0.1500 
5     H2       5.3884  -34.9151   24.5740 H       1  LIG   0.1480   0.1500 
6     C3       3.3050  -35.3690   24.4150 C.ar    1  LIG  -0.0698  -0.1435 
7     C4       2.3460  -36.0770   23.6860 C.ar    1  LIG  -0.0398   0.1170 
8     N2       0.9890  -36.0280   24.1030 N.am    1  LIG  -0.4596  -0.5470 
9     H3       0.7643  -35.9928   25.0860 H       1  LIG   0.3311   0.3700 
10    C5      -0.1450  -36.0180   23.4080 C.2     1  LIG   0.7361   0.5438 
11    C6      -0.1190  -36.0770   21.8860 C.ar    1  LIG  -0.2550   0.0862 
12    C7      -1.1230  -35.3990   21.1890 C.ar    1  LIG  -0.0321  -0.1500 
13    H4      -1.7552  -34.6955   21.7041 H       1  LIG   0.1623   0.1500 
14    C8      -1.2960  -35.6300   19.8690 C.ar    1  LIG  -0.2723  -0.1500 
15    H5      -2.0662  -35.1073   19.3273 H       1  LIG   0.1522   0.1500 
16    C9      -0.4670  -36.5450   19.2400 C.ar    1  LIG   0.4373   0.1600 
17    H6      -0.5947  -36.7554   18.1915 H       1  LIG   0.0280   0.1500 
18    N3       0.5220  -37.2120   19.8740 N.ar    1  LIG  -0.6893  -0.6200 
19    C10      0.7040  -36.9790   21.1800 C.ar    1  LIG   0.6480   0.4100 
20    N4       1.7670  -37.6730   21.8260 N.pl3   1  LIG  -0.6924  -0.3690 
21    C11      2.7540  -36.8570   22.5840 C.ar    1  LIG   0.5805   0.4100 
22    C12      2.9040  -34.5090   25.6010 C.3     1  LIG  -0.0620   0.1435 
23    H7       2.2235  -33.7630   25.2820 H       1  LIG   0.0570   0.0000 
24    H8       2.4436  -35.1154   26.3371 H       1  LIG   0.0495   0.0000 
25    H9       3.7654  -34.0491   26.0108 H       1  LIG   0.0519   0.0000 
26    O1      -1.2400  -35.9060   23.9770 O.2     1  LIG  -0.6361  -0.5700 
27    C13      2.3440  -38.7570   21.0360 C.3     1  LIG   0.1354   0.0690 
28    H10      3.1238  -38.3754   20.4296 H       1  LIG   0.0981   0.1000 
29    C14      2.9380  -39.8900   21.8010 C.3     1  LIG  -0.1181  -0.2000 
30    H11      3.8890  -40.1268   21.3997 H       1  LIG   0.0732   0.1000 
31    H12      3.0430  -39.6129   22.8177 H       1  LIG   0.0789   0.1000 
32    C15      1.6390  -40.0610   21.0880 C.3     1  LIG  -0.1196  -0.2000 
33    H13      0.6832  -39.9283   21.5242 H       1  LIG   0.0807   0.1000 
34    H14      1.5292  -40.4423   20.1061 H       1  LIG   0.0733   0.1000 
@<TRIPOS>BOND
1     2     1     ar
2     3     2     1
3     4     2     ar
4     5     4     1
5     6     4     ar
6     7     6     ar
7     8     7     1
8     9     8     1
9     10    8     1
10    11    10    1
11    12    11    ar
12    13    12    1
13    14    12    ar
14    15    14    1
15    16    14    ar
16    17    16    1
17    18    16    ar
18    19    11    ar
19    19    18    ar
20    20    19    1
21    21    1     ar
22    21    7     ar
23    21    20    1
24    22    6     1
25    23    22    1
26    24    22    1
27    25    22    1
28    26    10    2
29    27    20    1
30    28    27    1
31    29    27    1
32    30    29    1
33    31    29    1
34    32    27    1
35    32    29    1
36    33    32    1
37    34    32    1
@<TRIPOS>SUBSTRUCTURE
1   LIG    1    
 
########## Name        : 1VRT.lig
########## Description : AM1BCC_CHARGES =  -0.0002 ORIGINAL_CHARGES =  -0.0000

@<TRIPOS>MOLECULE
1VRT.lig
34    37    1     0     0    
SMALL
USER_CHARGES
@<TRIPOS>ATOM
1     N1       4.0540  -36.9310   22.2210 N.ar    1  LIG  -0.6650  -0.6200 
2     C1       4.9660  -36.2380   22.9390 C.ar    1  LIG   0.3947   0.1600 
3     H1       6.0082  -36.2811   22.6707 H       1  LIG   0.0281   0.1500 
4     C2       4.6240  -35.4500   24.0360 C.ar    1  LIG  -0.2334  -0.1500 
5     H2       5.3884  -34.9151   24.5740 H       1  LIG   0.1480   0.1500 
6     C3       3.3050  -35.3690   24.4150 C.ar    1  LIG  -0.0698  -0.1435 
7     C4       2.3460  -36.0770   23.6860 C.ar    1  LIG  -0.0398   0.1170 
8     N2       0.9890  -36.0280   24.1030 N.am    1  LIG  -0.4596  -0.5470 
9     H3       0.7643  -35.9928   25.0860 H       1  LIG   0.3311   0.3700 
10    C5      -0.1450  -36.0180   23.4080 C.2     1  LIG   0.7361   0.5438 
11    C6      -0.1190  -36.0770   21.8860 C.ar    1  LIG  -0.2550   0.0862 
12    C7      -1.1230  -35.3990   21.1890 C.ar    1  LIG  -0.0321  -0.1500 
13    H4      -1.7552  -34.6955   21.7041 H       1  LIG   0.1623   0.1500 
14    C8      -1.2960  -35.6300   19.8690 C.ar    1  LIG  -0.2723  -0.1500 
15    H5      -2.0662  -35.1073   19.3273 H       1  LIG   0.1522   0.1500 
16    C9      -0.4670  -36.5450   19.2400 C.ar    1  LIG   0.4373   0.1600 
17    H6      -0.5947  -36.7554   18.1915 H       1  LIG   0.0280   0.1500 
18    N3       0.5220  -37.2120   19.8740 N.ar    1  LIG  -0.6893  -0.6200 
19    C10      0.7040  -36.9790   21.1800 C.ar    1  LIG   0.6480   0.4100 
20    N4       1.7670  -37.6730   21.8260 N.pl3   1  LIG  -0.6924  -0.3690 
21    C11      2.7540  -36.8570   22.5840 C.ar    1  LIG   0.5805   0.4100 
22    C12      2.9040  -34.5090   25.6010 C.3     1  LIG  -0.0620   0.1435 
23    H7       2.2235  -33.7630   25.2820 H       1  LIG   0.0570   0.0000 
24    H8       2.4436  -35.1154   26.3371 H       1  LIG   0.0495   0.0000 
25    H9       3.7654  -34.0491   26.0108 H       1  LIG   0.0519   0.0000 
26    O1      -1.2400  -35.9060   23.9770 O.2     1  LIG  -0.6361  -0.5700 
27    C13      2.3440  -38.7570   21.0360 C.3     1  LIG   0.1354   0.0690 
28    H10      3.1238  -38.3754   20.4296 H       1  LIG   0.0981   0.1000 
29    C14      2.9380  -39.8900   21.8010 C.3     1  LIG  -0.1181  -0.2000 
30    H11      3.8890  -40.1268   21.3997 H       1  LIG   0.0732   0.1000 
31    H12      3.0430  -39.6129   22.8177 H       1  LIG   0.0789   0.1000 
32    C15      1.6390  -40.0610   21.0880 C.3     1  LIG  -0.1196  -0.2000 
33    H13      0.6832  -39.9283   21.5242 H       1  LIG   0.0807   0.1000 
34    H14      1.5292  -40.4423   20.1061 H       1  LIG   0.0733   0.1000 
@<TRIPOS>BOND
1     2     1     ar
2     3     2     1
3     4     2     ar
4     5     4     1
5     6     4     ar
6     7     6     ar
7     8     7     1
8     9     8     1
9     10    8     1
10    11    10    1
11    12    11    ar
12    13    12    1
13    14    12    ar
14    15    14    1
15    16    14    ar
16    17    16    1
17    18    16    ar
18    19    11    ar
19    19    18    ar
20    20    19    1
21    21    1     ar
22    21    7     ar
23    21    20    1
24    22    6     1
25    23    22    1
26    24    22    1
27    25    22    1
28    26    10    2
29    27    20    1
30    28    27    1
31    29    27    1
32    30    29    1
33    31    29    1
34    32    27    1
35    32    29    1
36    33    32    1
37    34    32    1
@<TRIPOS>SUBSTRUCTURE
1   LIG    1    
 
########## Name        : 1VRT.lig
########## Description : AM1BCC_CHARGES =  -0.0002 ORIGINAL_CHARGES =  -0.0000

@<TRIPOS>MOLECULE
1VRT.lig
34    37    1     0     0    
SMALL
USER_CHARGES
@<TRIPOS>ATOM
1     N1       4.0540  -36.9310   22.2210 N.ar    1  LIG  -0.6650  -0.6200 
2     C1       4.9660  -36.2380   22.9390 C.ar    1  LIG   0.3947   0.1600 
3     H1       6.0082  -36.2811   22.6707 H       1  LIG   0.0281   0.1500 
4     C2       4.6240  -35.4500   24.0360 C.ar    1  LIG  -0.2334  -0.1500 
5     H2       5.3884  -34.9151   24.5740 H       1  LIG   0.1480   0.1500 
6     C3       3.3050  -35.3690   24.4150 C.ar    1  LIG  -0.0698  -0.1435 
7     C4       2.3460  -36.0770   23.6860 C.ar    1  LIG  -0.0398   0.1170 
8     N2       0.9890  -36.0280   24.1030 N.am    1  LIG  -0.4596  -0.5470 
9     H3       0.7643  -35.9928   25.0860 H       1  LIG   0.3311   0.3700 
10    C5      -0.1450  -36.0180   23.4080 C.2     1  LIG   0.7361   0.5438 
11    C6      -0.1190  -36.0770   21.8860 C.ar    1  LIG  -0.2550   0.0862 
12    C7      -1.1230  -35.3990   21.1890 C.ar    1  LIG  -0.0321  -0.1500 
13    H4      -1.7552  -34.6955   21.7041 H       1  LIG   0.1623   0.1500 
14    C8      -1.2960  -35.6300   19.8690 C.ar    1  LIG  -0.2723  -0.1500 
15    H5      -2.0662  -35.1073   19.3273 H       1  LIG   0.1522   0.1500 
16    C9      -0.4670  -36.5450   19.2400 C.ar    1  LIG   0.4373   0.1600 
17    H6      -0.5947  -36.7554   18.1915 H       1  LIG   0.0280   0.1500 
18    N3       0.5220  -37.2120   19.8740 N.ar    1  LIG  -0.6893  -0.6200 
19    C10      0.7040  -36.9790   21.1800 C.ar    1  LIG   0.6480   0.4100 
20    N4       1.7670  -37.6730   21.8260 N.pl3   1  LIG  -0.6924  -0.3690 
21    C11      2.7540  -36.8570   22.5840 C.ar    1  LIG   0.5805   0.4100 
22    C12      2.9040  -34.5090   25.6010 C.3     1  LIG  -0.0620   0.1435 
23    H7       2.2235  -33.7630   25.2820 H       1  LIG   0.0570   0.0000 
24    H8       2.4436  -35.1154   26.3371 H       1  LIG   0.0495   0.0000 
25    H9       3.7654  -34.0491   26.0108 H       1  LIG   0.0519   0.0000 
26    O1      -1.2400  -35.9060   23.9770 O.2     1  LIG  -0.6361  -0.5700 
27    C13      2.3440  -38.7570   21.0360 C.3     1  LIG   0.1354   0.0690 
28    H10      3.1238  -38.3754   20.4296 H       1  LIG   0.0981   0.1000 
29    C14      2.9380  -39.8900   21.8010 C.3     1  LIG  -0.1181  -0.2000 
30    H11      3.8890  -40.1268   21.3997 H       1  LIG   0.0732   0.1000 
31    H12      3.0430  -39.6129   22.8177 H       1  LIG   0.0789   0.1000 
32    C15      1.6390  -40.0610   21.0880 C.3     1  LIG  -0.1196  -0.2000 
33    H13      0.6832  -39.9283   21.5242 H       1  LIG   0.0807   0.1000 
34    H14      1.5292  -40.4423   20.1061 H       1  LIG   0.0733   0.1000 
@<TRIPOS>BOND
1     2     1     ar
2     3     2     1
3     4     2     ar
4     5     4     1
5     6     4     ar
6     7     6     ar
7     8     7     1
8     9     8     1
9     10    8     1
10    11    10    1
11    12    11    ar
12    13    12    1
13    14    12    ar
14    15    14    1
15    16    14    ar
16    17    16    1
17    18    16    ar
18    19    11    ar
19    19    18    ar
20    20    19    1
21    21    1     ar
22    21    7     ar
23    21    20    1
24    22    6     1
25    23    22    1
26    24    22    1
27    25    22    1
28    26    10    2
29    27    20    1
30    28    27    1
31    29    27    1
32    30    29    1
33    31    29    1
34    32    27    1
35    32    29    1
36    33    32    1
37    34    32    1
@<TRIPOS>SUBSTRUCTURE
1   LIG    1    
 
########## Name        : 1VRT.lig
########## Description : AM1BCC_CHARGES =  -0.0002 ORIGINAL_CHARGES =  -0.0000

@<TRIPOS>MOLECULE
1VRT.lig
34    37    1     0     0    
SMALL
USER_CHARGES
@<TRIPOS>ATOM
1     N1       4.0540  -36.9310   22.2210 N.ar    1  LIG  -0.6650  -0.6200 
2     C1       4.9660  -36.2380   22.9390 C.ar    1  LIG   0.3947   0.1600 
3     H1       6.0082  -36.2811   22.6707 H       1  LIG   0.0281   0.1500 
4     C2       4.6240  -35.4500   24.0360 C.ar    1  LIG  -0.2334  -0.1500 
5     H2       5.3884  -34.9151   24.5740 H       1  LIG   0.1480   0.1500 
6     C3       3.3050  -35.3690   24.4150 C.ar    1  LIG  -0.0698  -0.1435 
7     C4       2.3460  -36.0770   23.6860 C.ar    1  LIG  -0.0398   0.1170 
8     N2       0.9890  -36.0280   24.1030 N.am    1  LIG  -0.4596  -0.5470 
9     H3       0.7643  -35.9928   25.0860 H       1  LIG   0.3311   0.3700 
10    C5      -0.1450  -36.0180   23.4080 C.2     1  LIG   0.7361   0.5438 
11    C6      -0.1190  -36.0770   21.8860 C.ar    1  LIG  -0.2550   0.0862 
12    C7      -1.1230  -35.3990   21.1890 C.ar    1  LIG  -0.0321  -0.1500 
13    H4      -1.7552  -34.6955   21.7041 H       1  LIG   0.1623   0.1500 
14    C8      -1.2960  -35.6300   19.8690 C.ar    1  LIG  -0.2723  -0.1500 
15    H5      -2.0662  -35.1073   19.3273 H       1  LIG   0.1522   0.1500 
16    C9      -0.4670  -36.5450   19.2400 C.ar    1  LIG   0.4373   0.1600 
17    H6      -0.5947  -36.7554   18.1915 H       1  LIG   0.0280   0.1500 
18    N3       0.5220  -37.2120   19.8740 N.ar    1  LIG  -0.6893  -0.6200 
19    C10      0.7040  -36.9790   21.1800 C.ar    1  LIG   0.6480   0.4100 
20    N4       1.7670  -37.6730   21.8260 N.pl3   1  LIG  -0.6924  -0.3690 
21    C11      2.7540  -36.8570   22.5840 C.ar    1  LIG   0.5805   0.4100 
22    C12      2.9040  -34.5090   25.6010 C.3     1  LIG  -0.0620   0.1435 
23    H7       2.2235  -33.7630   25.2820 H       1  LIG   0.0570   0.0000 
24    H8       2.4436  -35.1154   26.3371 H       1  LIG   0.0495   0.0000 
25    H9       3.7654  -34.0491   26.0108 H       1  LIG   0.0519   0.0000 
26    O1      -1.2400  -35.9060   23.9770 O.2     1  LIG  -0.6361  -0.5700 
27    C13      2.3440  -38.7570   21.0360 C.3     1  LIG   0.1354   0.0690 
28    H10      3.1238  -38.3754   20.4296 H       1  LIG   0.0981   0.1000 
29    C14      2.9380  -39.8900   21.8010 C.3     1  LIG  -0.1181  -0.2000 
30    H11      3.8890  -40.1268   21.3997 H       1  LIG   0.0732   0.1000 
31    H12      3.0430  -39.6129   22.8177 H       1  LIG   0.0789   0.1000 
32    C15      1.6390  -40.0610   21.0880 C.3     1  LIG  -0.1196  -0.2000 
33    H13      0.6832  -39.9283   21.5242 H       1  LIG   0.0807   0.1000 
34    H14      1.5292  -40.4423   20.1061 H       1  LIG   0.0733   0.1000 
@<TRIPOS>BOND
1     2     1     ar
2     3     2     1
3     4     2     ar
4     5     4     1
5     6     4     ar
6     7     6     ar
7     8     7     1
8     9     8     1
9     10    8     1
10    11    10    1
11    12    11    ar
12    13    12    1
13    14    12    ar
14    15    14    1
15    16    14    ar
16    17    16    1
17    18    16    ar
18    19    11    ar
19    19    18    ar
20    20    19    1
21    21    1     ar
22    21    7     ar
23    21    20    1
24    22    6     1
25    23    22    1
26    24    22    1
27    25    22    1
28    26    10    2
29    27    20    1
30    28    27    1
31    29    27    1
32    30    29    1
33    31    29    1
34    32    27    1
35    32    29    1
36    33    32    1
37    34    32    1
@<TRIPOS>SUBSTRUCTURE
1   LIG    1    
 
########## Name        : 1VRT.lig
########## Description : AM1BCC_CHARGES =  -0.0002 ORIGINAL_CHARGES =  -0.0000

@<TRIPOS>MOLECULE
1VRT.lig
34    37    1     0     0    
SMALL
USER_CHARGES
@<TRIPOS>ATOM
1     N1       4.0540  -36.9310   22.2210 N.ar    1  LIG  -0.6650  -0.6200 
2     C1       4.9660  -36.2380   22.9390 C.ar    1  LIG   0.3947   0.1600 
3     H1       6.0082  -36.2811   22.6707 H       1  LIG   0.0281   0.1500 
4     C2       4.6240  -35.4500   24.0360 C.ar    1  LIG  -0.2334  -0.1500 
5     H2       5.3884  -34.9151   24.5740 H       1  LIG   0.1480   0.1500 
6     C3       3.3050  -35.3690   24.4150 C.ar    1  LIG  -0.0698  -0.1435 
7     C4       2.3460  -36.0770   23.6860 C.ar    1  LIG  -0.0398   0.1170 
8     N2       0.9890  -36.0280   24.1030 N.am    1  LIG  -0.4596  -0.5470 
9     H3       0.7643  -35.9928   25.0860 H       1  LIG   0.3311   0.3700 
10    C5      -0.1450  -36.0180   23.4080 C.2     1  LIG   0.7361   0.5438 
11    C6      -0.1190  -36.0770   21.8860 C.ar    1  LIG  -0.2550   0.0862 
12    C7      -1.1230  -35.3990   21.1890 C.ar    1  LIG  -0.0321  -0.1500 
13    H4      -1.7552  -34.6955   21.7041 H       1  LIG   0.1623   0.1500 
14    C8      -1.2960  -35.6300   19.8690 C.ar    1  LIG  -0.2723  -0.1500 
15    H5      -2.0662  -35.1073   19.3273 H       1  LIG   0.1522   0.1500 
16    C9      -0.4670  -36.5450   19.2400 C.ar    1  LIG   0.4373   0.1600 
17    H6      -0.5947  -36.7554   18.1915 H       1  LIG   0.0280   0.1500 
18    N3       0.5220  -37.2120   19.8740 N.ar    1  LIG  -0.6893  -0.6200 
19    C10      0.7040  -36.9790   21.1800 C.ar    1  LIG   0.6480   0.4100 
20    N4       1.7670  -37.6730   21.8260 N.pl3   1  LIG  -0.6924  -0.3690 
21    C11      2.7540  -36.8570   22.5840 C.ar    1  LIG   0.5805   0.4100 
22    C12      2.9040  -34.5090   25.6010 C.3     1  LIG  -0.0620   0.1435 
23    H7       2.2235  -33.7630   25.2820 H       1  LIG   0.0570   0.0000 
24    H8       2.4436  -35.1154   26.3371 H       1  LIG   0.0495   0.0000 
25    H9       3.7654  -34.0491   26.0108 H       1  LIG   0.0519   0.0000 
26    O1      -1.2400  -35.9060   23.9770 O.2     1  LIG  -0.6361  -0.5700 
27    C13      2.3440  -38.7570   21.0360 C.3     1  LIG   0.1354   0.0690 
28    H10      3.1238  -38.3754   20.4296 H       1  LIG   0.0981   0.1000 
29    C14      2.9380  -39.8900   21.8010 C.3     1  LIG  -0.1181  -0.2000 
30    H11      3.8890  -40.1268   21.3997 H       1  LIG   0.0732   0.1000 
31    H12      3.0430  -39.6129   22.8177 H       1  LIG   0.0789   0.1000 
32    C15      1.6390  -40.0610   21.0880 C.3     1  LIG  -0.1196  -0.2000 
33    H13      0.6832  -39.9283   21.5242 H       1  LIG   0.0807   0.1000 
34    H14      1.5292  -40.4423   20.1061 H       1  LIG   0.0733   0.1000 
@<TRIPOS>BOND
1     2     1     ar
2     3     2     1
3     4     2     ar
4     5     4     1
5     6     4     ar
6     7     6     ar
7     8     7     1
8     9     8     1
9     10    8     1
10    11    10    1
11    12    11    ar
12    13    12    1
13    14    12    ar
14    15    14    1
15    16    14    ar
16    17    16    1
17    18    16    ar
18    19    11    ar
19    19    18    ar
20    20    19    1
21    21    1     ar
22    21    7     ar
23    21    20    1
24    22    6     1
25    23    22    1
26    24    22    1
27    25    22    1
28    26    10    2
29    27    20    1
30    28    27    1
31    29    27    1
32    30    29    1
33    31    29    1
34    32    27    1
35    32    29    1
36    33    32    1
37    34    32    1
@<TRIPOS>SUBSTRUCTURE
1   LIG    1    
 
########## Name        : 1VRT.lig
########## Description : AM1BCC_CHARGES =  -0.0002 ORIGINAL_CHARGES =  -0.0000

@<TRIPOS>MOLECULE
1VRT.lig
34    37    1     0     0    
SMALL
USER_CHARGES
@<TRIPOS>ATOM
1     N1       4.0540  -36.9310   22.2210 N.ar    1  LIG  -0.6650  -0.6200 
2     C1       4.9660  -36.2380   22.9390 C.ar    1  LIG   0.3947   0.1600 
3     H1       6.0082  -36.2811   22.6707 H       1  LIG   0.0281   0.1500 
4     C2       4.6240  -35.4500   24.0360 C.ar    1  LIG  -0.2334  -0.1500 
5     H2       5.3884  -34.9151   24.5740 H       1  LIG   0.1480   0.1500 
6     C3       3.3050  -35.3690   24.4150 C.ar    1  LIG  -0.0698  -0.1435 
7     C4       2.3460  -36.0770   23.6860 C.ar    1  LIG  -0.0398   0.1170 
8     N2       0.9890  -36.0280   24.1030 N.am    1  LIG  -0.4596  -0.5470 
9     H3       0.7643  -35.9928   25.0860 H       1  LIG   0.3311   0.3700 
10    C5      -0.1450  -36.0180   23.4080 C.2     1  LIG   0.7361   0.5438 
11    C6      -0.1190  -36.0770   21.8860 C.ar    1  LIG  -0.2550   0.0862 
12    C7      -1.1230  -35.3990   21.1890 C.ar    1  LIG  -0.0321  -0.1500 
13    H4      -1.7552  -34.6955   21.7041 H       1  LIG   0.1623   0.1500 
14    C8      -1.2960  -35.6300   19.8690 C.ar    1  LIG  -0.2723  -0.1500 
15    H5      -2.0662  -35.1073   19.3273 H       1  LIG   0.1522   0.1500 
16    C9      -0.4670  -36.5450   19.2400 C.ar    1  LIG   0.4373   0.1600 
17    H6      -0.5947  -36.7554   18.1915 H       1  LIG   0.0280   0.1500 
18    N3       0.5220  -37.2120   19.8740 N.ar    1  LIG  -0.6893  -0.6200 
19    C10      0.7040  -36.9790   21.1800 C.ar    1  LIG   0.6480   0.4100 
20    N4       1.7670  -37.6730   21.8260 N.pl3   1  LIG  -0.6924  -0.3690 
21    C11      2.7540  -36.8570   22.5840 C.ar    1  LIG   0.5805   0.4100 
22    C12      2.9040  -34.5090   25.6010 C.3     1  LIG  -0.0620   0.1435 
23    H7       2.2235  -33.7630   25.2820 H       1  LIG   0.0570   0.0000 
24    H8       2.4436  -35.1154   26.3371 H       1  LIG   0.0495   0.0000 
25    H9       3.7654  -34.0491   26.0108 H       1  LIG   0.0519   0.0000 
26    O1      -1.2400  -35.9060   23.9770 O.2     1  LIG  -0.6361  -0.5700 
27    C13      2.3440  -38.7570   21.0360 C.3     1  LIG   0.1354   0.0690 
28    H10      3.1238  -38.3754   20.4296 H       1  LIG   0.0981   0.1000 
29    C14      2.9380  -39.8900   21.8010 C.3     1  LIG  -0.1181  -0.2000 
30    H11      3.8890  -40.1268   21.3997 H       1  LIG   0.0732   0.1000 
31    H12      3.0430  -39.6129   22.8177 H       1  LIG   0.0789   0.1000 
32    C15      1.6390  -40.0610   21.0880 C.3     1  LIG  -0.1196  -0.2000 
33    H13      0.6832  -39.9283   21.5242 H       1  LIG   0.0807   0.1000 
34    H14      1.5292  -40.4423   20.1061 H       1  LIG   0.0733   0.1000 
@<TRIPOS>BOND
1     2     1     ar
2     3     2     1
3     4     2     ar
4     5     4     1
5     6     4     ar
6     7     6     ar
7     8     7     1
8     9     8     1
9     10    8     1
10    11    10    1
11    12    11    ar
12    13    12    1
13    14    12    ar
14    15    14    1
15    16    14    ar
16    17    16    1
17    18    16    ar
18    19    11    ar
19    19    18    ar
20    20    19    1
21    21    1     ar
22    21    7     ar
23    21    20    1
24    22    6     1
25    23    22    1
26    24    22    1
27    25    22    1
28    26    10    2
29    27    20    1
30    28    27    1
31    29    27    1
32    30    29    1
33    31    29    1
34    32    27    1
35    32    29    1
36    33    32    1
37    34    32    1
@<TRIPOS>SUBSTRUCTURE
1   LIG    1    
 
########## Name        : 1VRT.lig
########## Description : AM1BCC_CHARGES =  -0.0002 ORIGINAL_CHARGES =  -0.0000

@<TRIPOS>MOLECULE
1VRT.lig
34    37    1     0     0    
SMALL
USER_CHARGES
@<TRIPOS>ATOM
1     N1       4.0540  -36.9310   22.2210 N.ar    1  LIG  -0.6650  -0.6200 
2     C1       4.9660  -36.2380   22.9390 C.ar    1  LIG   0.3947   0.1600 
3     H1       6.0082  -36.2811   22.6707 H       1  LIG   0.0281   0.1500 
4     C2       4.6240  -35.4500   24.0360 C.ar    1  LIG  -0.2334  -0.1500 
5     H2       5.3884  -34.9151   24.5740 H       1  LIG   0.1480   0.1500 
6     C3       3.3050  -35.3690   24.4150 C.ar    1  LIG  -0.0698  -0.1435 
7     C4       2.3460  -36.0770   23.6860 C.ar    1  LIG  -0.0398   0.1170 
8     N2       0.9890  -36.0280   24.1030 N.am    1  LIG  -0.4596  -0.5470 
9     H3       0.7643  -35.9928   25.0860 H       1  LIG   0.3311   0.3700 
10    C5      -0.1450  -36.0180   23.4080 C.2     1  LIG   0.7361   0.5438 
11    C6      -0.1190  -36.0770   21.8860 C.ar    1  LIG  -0.2550   0.0862 
12    C7      -1.1230  -35.3990   21.1890 C.ar    1  LIG  -0.0321  -0.1500 
13    H4      -1.7552  -34.6955   21.7041 H       1  LIG   0.1623   0.1500 
14    C8      -1.2960  -35.6300   19.8690 C.ar    1  LIG  -0.2723  -0.1500 
15    H5      -2.0662  -35.1073   19.3273 H       1  LIG   0.1522   0.1500 
16    C9      -0.4670  -36.5450   19.2400 C.ar    1  LIG   0.4373   0.1600 
17    H6      -0.5947  -36.7554   18.1915 H       1  LIG   0.0280   0.1500 
18    N3       0.5220  -37.2120   19.8740 N.ar    1  LIG  -0.6893  -0.6200 
19    C10      0.7040  -36.9790   21.1800 C.ar    1  LIG   0.6480   0.4100 
20    N4       1.7670  -37.6730   21.8260 N.pl3   1  LIG  -0.6924  -0.3690 
21    C11      2.7540  -36.8570   22.5840 C.ar    1  LIG   0.5805   0.4100 
22    C12      2.9040  -34.5090   25.6010 C.3     1  LIG  -0.0620   0.1435 
23    H7       2.2235  -33.7630   25.2820 H       1  LIG   0.0570   0.0000 
24    H8       2.4436  -35.1154   26.3371 H       1  LIG   0.0495   0.0000 
25    H9       3.7654  -34.0491   26.0108 H       1  LIG   0.0519   0.0000 
26    O1      -1.2400  -35.9060   23.9770 O.2     1  LIG  -0.6361  -0.5700 
27    C13      2.3440  -38.7570   21.0360 C.3     1  LIG   0.1354   0.0690 
28    H10      3.1238  -38.3754   20.4296 H       1  LIG   0.0981   0.1000 
29    C14      2.9380  -39.8900   21.8010 C.3     1  LIG  -0.1181  -0.2000 
30    H11      3.8890  -40.1268   21.3997 H       1  LIG   0.0732   0.1000 
31    H12      3.0430  -39.6129   22.8177 H       1  LIG   0.0789   0.1000 
32    C15      1.6390  -40.0610   21.0880 C.3     1  LIG  -0.1196  -0.2000 
33    H13      0.6832  -39.9283   21.5242 H       1  LIG   0.0807   0.1000 
34    H14      1.5292  -40.4423   20.1061 H       1  LIG   0.0733   0.1000 
@<TRIPOS>BOND
1     2     1     ar
2     3     2     1
3     4     2     ar
4     5     4     1
5     6     4     ar
6     7     6     ar
7     8     7     1
8     9     8     1
9     10    8     1
10    11    10    1
11    12    11    ar
12    13    12    1
13    14    12    ar
14    15    14    1
15    16    14    ar
16    17    16    1
17    18    16    ar
18    19    11    ar
19    19    18    ar
20    20    19    1
21    21    1     ar
22    21    7     ar
23    21    20    1
24    22    6     1
25    23    22    1
26    24    22    1
27    25    22    1
28    26    10    2
29    27    20    1
30    28    27    1
31    29    27    1
32    30    29    1
33    31    29    1
34    32    27    1
35    32    29    1
36    33    32    1
37    34    32    1
@<TRIPOS>SUBSTRUCTURE
1   LIG    1    
 
########## Name        : 1VRT.lig
########## Description : AM1BCC_CHARGES =  -0.0002 ORIGINAL_CHARGES =  -0.0000

@<TRIPOS>MOLECULE
1VRT.lig
34    37    1     0     0    
SMALL
USER_CHARGES
@<TRIPOS>ATOM
1     N1       4.0540  -36.9310   22.2210 N.ar    1  LIG  -0.6650  -0.6200 
2     C1       4.9660  -36.2380   22.9390 C.ar    1  LIG   0.3947   0.1600 
3     H1       6.0082  -36.2811   22.6707 H       1  LIG   0.0281   0.1500 
4     C2       4.6240  -35.4500   24.0360 C.ar    1  LIG  -0.2334  -0.1500 
5     H2       5.3884  -34.9151   24.5740 H       1  LIG   0.1480   0.1500 
6     C3       3.3050  -35.3690   24.4150 C.ar    1  LIG  -0.0698  -0.1435 
7     C4       2.3460  -36.0770   23.6860 C.ar    1  LIG  -0.0398   0.1170 
8     N2       0.9890  -36.0280   24.1030 N.am    1  LIG  -0.4596  -0.5470 
9     H3       0.7643  -35.9928   25.0860 H       1  LIG   0.3311   0.3700 
10    C5      -0.1450  -36.0180   23.4080 C.2     1  LIG   0.7361   0.5438 
11    C6      -0.1190  -36.0770   21.8860 C.ar    1  LIG  -0.2550   0.0862 
12    C7      -1.1230  -35.3990   21.1890 C.ar    1  LIG  -0.0321  -0.1500 
13    H4      -1.7552  -34.6955   21.7041 H       1  LIG   0.1623   0.1500 
14    C8      -1.2960  -35.6300   19.8690 C.ar    1  LIG  -0.2723  -0.1500 
15    H5      -2.0662  -35.1073   19.3273 H       1  LIG   0.1522   0.1500 
16    C9      -0.4670  -36.5450   19.2400 C.ar    1  LIG   0.4373   0.1600 
17    H6      -0.5947  -36.7554   18.1915 H       1  LIG   0.0280   0.1500 
18    N3       0.5220  -37.2120   19.8740 N.ar    1  LIG  -0.6893  -0.6200 
19    C10      0.7040  -36.9790   21.1800 C.ar    1  LIG   0.6480   0.4100 
20    N4       1.7670  -37.6730   21.8260 N.pl3   1  LIG  -0.6924  -0.3690 
21    C11      2.7540  -36.8570   22.5840 C.ar    1  LIG   0.5805   0.4100 
22    C12      2.9040  -34.5090   25.6010 C.3     1  LIG  -0.0620   0.1435 
23    H7       2.2235  -33.7630   25.2820 H       1  LIG   0.0570   0.0000 
24    H8       2.4436  -35.1154   26.3371 H       1  LIG   0.0495   0.0000 
25    H9       3.7654  -34.0491   26.0108 H       1  LIG   0.0519   0.0000 
26    O1      -1.2400  -35.9060   23.9770 O.2     1  LIG  -0.6361  -0.5700 
27    C13      2.3440  -38.7570   21.0360 C.3     1  LIG   0.1354   0.0690 
28    H10      3.1238  -38.3754   20.4296 H       1  LIG   0.0981   0.1000 
29    C14      2.9380  -39.8900   21.8010 C.3     1  LIG  -0.1181  -0.2000 
30    H11      3.8890  -40.1268   21.3997 H       1  LIG   0.0732   0.1000 
31    H12      3.0430  -39.6129   22.8177 H       1  LIG   0.0789   0.1000 
32    C15      1.6390  -40.0610   21.0880 C.3     1  LIG  -0.1196  -0.2000 
33    H13      0.6832  -39.9283   21.5242 H       1  LIG   0.0807   0.1000 
34    H14      1.5292  -40.4423   20.1061 H       1  LIG   0.0733   0.1000 
@<TRIPOS>BOND
1     2     1     ar
2     3     2     1
3     4     2     ar
4     5     4     1
5     6     4     ar
6     7     6     ar
7     8     7     1
8     9     8     1
9     10    8     1
10    11    10    1
11    12    11    ar
12    13    12    1
13    14    12    ar
14    15    14    1
15    16    14    ar
16    17    16    1
17    18    16    ar
18    19    11    ar
19    19    18    ar
20    20    19    1
21    21    1     ar
22    21    7     ar
23    21    20    1
24    22    6     1
25    23    22    1
26    24    22    1
27    25    22    1
28    26    10    2
29    27    20    1
30    28    27    1
31    29    27    1
32    30    29    1
33    31    29    1
34    32    27    1
35    32    29    1
36    33    32    1
37    34    32    1
@<TRIPOS>SUBSTRUCTURE
1   LIG    1    
 
########## Name        : 1VRT.lig
########## Description : AM1BCC_CHARGES =  -0.0002 ORIGINAL_CHARGES =  -0.0000

@<TRIPOS>MOLECULE
1VRT.lig
34    37    1     0     0    
SMALL
USER_CHARGES
@<TRIPOS>ATOM
1     N1       4.0540  -36.9310   22.2210 N.ar    1  LIG  -0.6650  -0.6200 
2     C1       4.9660  -36.2380   22.9390 C.ar    1  LIG   0.3947   0.1600 
3     H1       6.0082  -36.2811   22.6707 H       1  LIG   0.0281   0.1500 
4     C2       4.6240  -35.4500   24.0360 C.ar    1  LIG  -0.2334  -0.1500 
5     H2       5.3884  -34.9151   24.5740 H       1  LIG   0.1480   0.1500 
6     C3       3.3050  -35.3690   24.4150 C.ar    1  LIG  -0.0698  -0.1435 
7     C4       2.3460  -36.0770   23.6860 C.ar    1  LIG  -0.0398   0.1170 
8     N2       0.9890  -36.0280   24.1030 N.am    1  LIG  -0.4596  -0.5470 
9     H3       0.7643  -35.9928   25.0860 H       1  LIG   0.3311   0.3700 
10    C5      -0.1450  -36.0180   23.4080 C.2     1  LIG   0.7361   0.5438 
11    C6      -0.1190  -36.0770   21.8860 C.ar    1  LIG  -0.2550   0.0862 
12    C7      -1.1230  -35.3990   21.1890 C.ar    1  LIG  -0.0321  -0.1500 
13    H4      -1.7552  -34.6955   21.7041 H       1  LIG   0.1623   0.1500 
14    C8      -1.2960  -35.6300   19.8690 C.ar    1  LIG  -0.2723  -0.1500 
15    H5      -2.0662  -35.1073   19.3273 H       1  LIG   0.1522   0.1500 
16    C9      -0.4670  -36.5450   19.2400 C.ar    1  LIG   0.4373   0.1600 
17    H6      -0.5947  -36.7554   18.1915 H       1  LIG   0.0280   0.1500 
18    N3       0.5220  -37.2120   19.8740 N.ar    1  LIG  -0.6893  -0.6200 
19    C10      0.7040  -36.9790   21.1800 C.ar    1  LIG   0.6480   0.4100 
20    N4       1.7670  -37.6730   21.8260 N.pl3   1  LIG  -0.6924  -0.3690 
21    C11      2.7540  -36.8570   22.5840 C.ar    1  LIG   0.5805   0.4100 
22    C12      2.9040  -34.5090   25.6010 C.3     1  LIG  -0.0620   0.1435 
23    H7       2.2235  -33.7630   25.2820 H       1  LIG   0.0570   0.0000 
24    H8       2.4436  -35.1154   26.3371 H       1  LIG   0.0495   0.0000 
25    H9       3.7654  -34.0491   26.0108 H       1  LIG   0.0519   0.0000 
26    O1      -1.2400  -35.9060   23.9770 O.2     1  LIG  -0.6361  -0.5700 
27    C13      2.3440  -38.7570   21.0360 C.3     1  LIG   0.1354   0.0690 
28    H10      3.1238  -38.3754   20.4296 H       1  LIG   0.0981   0.1000 
29    C14      2.9380  -39.8900   21.8010 C.3     1  LIG  -0.1181  -0.2000 
30    H11      3.8890  -40.1268   21.3997 H       1  LIG   0.0732   0.1000 
31    H12      3.0430  -39.6129   22.8177 H       1  LIG   0.0789   0.1000 
32    C15      1.6390  -40.0610   21.0880 C.3     1  LIG  -0.1196  -0.2000 
33    H13      0.6832  -39.9283   21.5242 H       1  LIG   0.0807   0.1000 
34    H14      1.5292  -40.4423   20.1061 H       1  LIG   0.0733   0.1000 
@<TRIPOS>BOND
1     2     1     ar
2     3     2     1
3     4     2     ar
4     5     4     1
5     6     4     ar
6     7     6     ar
7     8     7     1
8     9     8     1
9     10    8     1
10    11    10    1
11    12    11    ar
12    13    12    1
13    14    12    ar
14    15    14    1
15    16    14    ar
16    17    16    1
17    18    16    ar
18    19    11    ar
19    19    18    ar
20    20    19    1
21    21    1     ar
22    21    7     ar
23    21    20    1
24    22    6     1
25    23    22    1
26    24    22    1
27    25    22    1
28    26    10    2
29    27    20    1
30    28    27    1
31    29    27    1
32    30    29    1
33    31    29    1
34    32    27    1
35    32    29    1
36    33    32    1
37    34    32    1
@<TRIPOS>SUBSTRUCTURE
1   LIG    1    
 
########## Name        : 1VRT.lig
########## Description : AM1BCC_CHARGES =  -0.0002 ORIGINAL_CHARGES =  -0.0000

@<TRIPOS>MOLECULE
1VRT.lig
34    37    1     0     0    
SMALL
USER_CHARGES
@<TRIPOS>ATOM
1     N1       4.0540  -36.9310   22.2210 N.ar    1  LIG  -0.6650  -0.6200 
2     C1       4.9660  -36.2380   22.9390 C.ar    1  LIG   0.3947   0.1600 
3     H1       6.0082  -36.2811   22.6707 H       1  LIG   0.0281   0.1500 
4     C2       4.6240  -35.4500   24.0360 C.ar    1  LIG  -0.2334  -0.1500 
5     H2       5.3884  -34.9151   24.5740 H       1  LIG   0.1480   0.1500 
6     C3       3.3050  -35.3690   24.4150 C.ar    1  LIG  -0.0698  -0.1435 
7     C4       2.3460  -36.0770   23.6860 C.ar    1  LIG  -0.0398   0.1170 
8     N2       0.9890  -36.0280   24.1030 N.am    1  LIG  -0.4596  -0.5470 
9     H3       0.7643  -35.9928   25.0860 H       1  LIG   0.3311   0.3700 
10    C5      -0.1450  -36.0180   23.4080 C.2     1  LIG   0.7361   0.5438 
11    C6      -0.1190  -36.0770   21.8860 C.ar    1  LIG  -0.2550   0.0862 
12    C7      -1.1230  -35.3990   21.1890 C.ar    1  LIG  -0.0321  -0.1500 
13    H4      -1.7552  -34.6955   21.7041 H       1  LIG   0.1623   0.1500 
14    C8      -1.2960  -35.6300   19.8690 C.ar    1  LIG  -0.2723  -0.1500 
15    H5      -2.0662  -35.1073   19.3273 H       1  LIG   0.1522   0.1500 
16    C9      -0.4670  -36.5450   19.2400 C.ar    1  LIG   0.4373   0.1600 
17    H6      -0.5947  -36.7554   18.1915 H       1  LIG   0.0280   0.1500 
18    N3       0.5220  -37.2120   19.8740 N.ar    1  LIG  -0.6893  -0.6200 
19    C10      0.7040  -36.9790   21.1800 C.ar    1  LIG   0.6480   0.4100 
20    N4       1.7670  -37.6730   21.8260 N.pl3   1  LIG  -0.6924  -0.3690 
21    C11      2.7540  -36.8570   22.5840 C.ar    1  LIG   0.5805   0.4100 
22    C12      2.9040  -34.5090   25.6010 C.3     1  LIG  -0.0620   0.1435 
23    H7       2.2235  -33.7630   25.2820 H       1  LIG   0.0570   0.0000 
24    H8       2.4436  -35.1154   26.3371 H       1  LIG   0.0495   0.0000 
25    H9       3.7654  -34.0491   26.0108 H       1  LIG   0.0519   0.0000 
26    O1      -1.2400  -35.9060   23.9770 O.2     1  LIG  -0.6361  -0.5700 
27    C13      2.3440  -38.7570   21.0360 C.3     1  LIG   0.1354   0.0690 
28    H10      3.1238  -38.3754   20.4296 H       1  LIG   0.0981   0.1000 
29    C14      2.9380  -39.8900   21.8010 C.3     1  LIG  -0.1181  -0.2000 
30    H11      3.8890  -40.1268   21.3997 H       1  LIG   0.0732   0.1000 
31    H12      3.0430  -39.6129   22.8177 H       1  LIG   0.0789   0.1000 
32    C15      1.6390  -40.0610   21.0880 C.3     1  LIG  -0.1196  -0.2000 
33    H13      0.6832  -39.9283   21.5242 H       1  LIG   0.0807   0.1000 
34    H14      1.5292  -40.4423   20.1061 H       1  LIG   0.0733   0.1000 
@<TRIPOS>BOND
1     2     1     ar
2     3     2     1
3     4     2     ar
4     5     4     1
5     6     4     ar
6     7     6     ar
7     8     7     1
8     9     8     1
9     10    8     1
10    11    10    1
11    12    11    ar
12    13    12    1
13    14    12    ar
14    15    14    1
15    16    14    ar
16    17    16    1
17    18    16    ar
18    19    11    ar
19    19    18    ar
20    20    19    1
21    21    1     ar
22    21    7     ar
23    21    20    1
24    22    6     1
25    23    22    1
26    24    22    1
27    25    22    1
28    26    10    2
29    27    20    1
30    28    27    1
31    29    27    1
32    30    29    1
33    31    29    1
34    32    27    1
35    32    29    1
36    33    32    1
37    34    32    1
@<TRIPOS>SUBSTRUCTURE
1   LIG    1    
 
########## Name        : 1VRT.lig
########## Description : AM1BCC_CHARGES =  -0.0002 ORIGINAL_CHARGES =  -0.0000

@<TRIPOS>MOLECULE
1VRT.lig
34    37    1     0     0    
SMALL
USER_CHARGES
@<TRIPOS>ATOM
1     N1       4.0540  -36.9310   22.2210 N.ar    1  LIG  -0.6650  -0.6200 
2     C1       4.9660  -36.2380   22.9390 C.ar    1  LIG   0.3947   0.1600 
3     H1       6.0082  -36.2811   22.6707 H       1  LIG   0.0281   0.1500 
4     C2       4.6240  -35.4500   24.0360 C.ar    1  LIG  -0.2334  -0.1500 
5     H2       5.3884  -34.9151   24.5740 H       1  LIG   0.1480   0.1500 
6     C3       3.3050  -35.3690   24.4150 C.ar    1  LIG  -0.0698  -0.1435 
7     C4       2.3460  -36.0770   23.6860 C.ar    1  LIG  -0.0398   0.1170 
8     N2       0.9890  -36.0280   24.1030 N.am    1  LIG  -0.4596  -0.5470 
9     H3       0.7643  -35.9928   25.0860 H       1  LIG   0.3311   0.3700 
10    C5      -0.1450  -36.0180   23.4080 C.2     1  LIG   0.7361   0.5438 
11    C6      -0.1190  -36.0770   21.8860 C.ar    1  LIG  -0.2550   0.0862 
12    C7      -1.1230  -35.3990   21.1890 C.ar    1  LIG  -0.0321  -0.1500 
13    H4      -1.7552  -34.6955   21.7041 H       1  LIG   0.1623   0.1500 
14    C8      -1.2960  -35.6300   19.8690 C.ar    1  LIG  -0.2723  -0.1500 
15    H5      -2.0662  -35.1073   19.3273 H       1  LIG   0.1522   0.1500 
16    C9      -0.4670  -36.5450   19.2400 C.ar    1  LIG   0.4373   0.1600 
17    H6      -0.5947  -36.7554   18.1915 H       1  LIG   0.0280   0.1500 
18    N3       0.5220  -37.2120   19.8740 N.ar    1  LIG  -0.6893  -0.6200 
19    C10      0.7040  -36.9790   21.1800 C.ar    1  LIG   0.6480   0.4100 
20    N4       1.7670  -37.6730   21.8260 N.pl3   1  LIG  -0.6924  -0.3690 
21    C11      2.7540  -36.8570   22.5840 C.ar    1  LIG   0.5805   0.4100 
22    C12      2.9040  -34.5090   25.6010 C.3     1  LIG  -0.0620   0.1435 
23    H7       2.2235  -33.7630   25.2820 H       1  LIG   0.0570   0.0000 
24    H8       2.4436  -35.1154   26.3371 H       1  LIG   0.0495   0.0000 
25    H9       3.7654  -34.0491   26.0108 H       1  LIG   0.0519   0.0000 
26    O1      -1.2400  -35.9060   23.9770 O.2     1  LIG  -0.6361  -0.5700 
27    C13      2.3440  -38.7570   21.0360 C.3     1  LIG   0.1354   0.0690 
28    H10      3.1238  -38.3754   20.4296 H       1  LIG   0.0981   0.1000 
29    C14      2.9380  -39.8900   21.8010 C.3     1  LIG  -0.1181  -0.2000 
30    H11      3.8890  -40.1268   21.3997 H       1  LIG   0.0732   0.1000 
31    H12      3.0430  -39.6129   22.8177 H       1  LIG   0.0789   0.1000 
32    C15      1.6390  -40.0610   21.0880 C.3     1  LIG  -0.1196  -0.2000 
33    H13      0.6832  -39.9283   21.5242 H       1  LIG   0.0807   0.1000 
34    H14      1.5292  -40.4423   20.1061 H       1  LIG   0.0733   0.1000 
@<TRIPOS>BOND
1     2     1     ar
2     3     2     1
3     4     2     ar
4     5     4     1
5     6     4     ar
6     7     6     ar
7     8     7     1
8     9     8     1
9     10    8     1
10    11    10    1
11    12    11    ar
12    13    12    1
13    14    12    ar
14    15    14    1
15    16    14    ar
16    17    16    1
17    18    16    ar
18    19    11    ar
19    19    18    ar
20    20    19    1
21    21    1     ar
22    21    7     ar
23    21    20    1
24    22    6     1
25    23    22    1
26    24    22    1
27    25    22    1
28    26    10    2
29    27    20    1
30    28    27    1
31    29    27    1
32    30    29    1
33    31    29    1
34    32    27    1
35    32    29    1
36    33    32    1
37    34    32    1
@<TRIPOS>SUBSTRUCTURE
1   LIG    1    
 
########## Name        : 1VRT.lig
########## Description : AM1BCC_CHARGES =  -0.0002 ORIGINAL_CHARGES =  -0.0000

@<TRIPOS>MOLECULE
1VRT.lig
34    37    1     0     0    
SMALL
USER_CHARGES
@<TRIPOS>ATOM
1     N1       4.0540  -36.9310   22.2210 N.ar    1  LIG  -0.6650  -0.6200 
2     C1       4.9660  -36.2380   22.9390 C.ar    1  LIG   0.3947   0.1600 
3     H1       6.0082  -36.2811   22.6707 H       1  LIG   0.0281   0.1500 
4     C2       4.6240  -35.4500   24.0360 C.ar    1  LIG  -0.2334  -0.1500 
5     H2       5.3884  -34.9151   24.5740 H       1  LIG   0.1480   0.1500 
6     C3       3.3050  -35.3690   24.4150 C.ar    1  LIG  -0.0698  -0.1435 
7     C4       2.3460  -36.0770   23.6860 C.ar    1  LIG  -0.0398   0.1170 
8     N2       0.9890  -36.0280   24.1030 N.am    1  LIG  -0.4596  -0.5470 
9     H3       0.7643  -35.9928   25.0860 H       1  LIG   0.3311   0.3700 
10    C5      -0.1450  -36.0180   23.4080 C.2     1  LIG   0.7361   0.5438 
11    C6      -0.1190  -36.0770   21.8860 C.ar    1  LIG  -0.2550   0.0862 
12    C7      -1.1230  -35.3990   21.1890 C.ar    1  LIG  -0.0321  -0.1500 
13    H4      -1.7552  -34.6955   21.7041 H       1  LIG   0.1623   0.1500 
14    C8      -1.2960  -35.6300   19.8690 C.ar    1  LIG  -0.2723  -0.1500 
15    H5      -2.0662  -35.1073   19.3273 H       1  LIG   0.1522   0.1500 
16    C9      -0.4670  -36.5450   19.2400 C.ar    1  LIG   0.4373   0.1600 
17    H6      -0.5947  -36.7554   18.1915 H       1  LIG   0.0280   0.1500 
18    N3       0.5220  -37.2120   19.8740 N.ar    1  LIG  -0.6893  -0.6200 
19    C10      0.7040  -36.9790   21.1800 C.ar    1  LIG   0.6480   0.4100 
20    N4       1.7670  -37.6730   21.8260 N.pl3   1  LIG  -0.6924  -0.3690 
21    C11      2.7540  -36.8570   22.5840 C.ar    1  LIG   0.5805   0.4100 
22    C12      2.9040  -34.5090   25.6010 C.3     1  LIG  -0.0620   0.1435 
23    H7       2.2235  -33.7630   25.2820 H       1  LIG   0.0570   0.0000 
24    H8       2.4436  -35.1154   26.3371 H       1  LIG   0.0495   0.0000 
25    H9       3.7654  -34.0491   26.0108 H       1  LIG   0.0519   0.0000 
26    O1      -1.2400  -35.9060   23.9770 O.2     1  LIG  -0.6361  -0.5700 
27    C13      2.3440  -38.7570   21.0360 C.3     1  LIG   0.1354   0.0690 
28    H10      3.1238  -38.3754   20.4296 H       1  LIG   0.0981   0.1000 
29    C14      2.9380  -39.8900   21.8010 C.3     1  LIG  -0.1181  -0.2000 
30    H11      3.8890  -40.1268   21.3997 H       1  LIG   0.0732   0.1000 
31    H12      3.0430  -39.6129   22.8177 H       1  LIG   0.0789   0.1000 
32    C15      1.6390  -40.0610   21.0880 C.3     1  LIG  -0.1196  -0.2000 
33    H13      0.6832  -39.9283   21.5242 H       1  LIG   0.0807   0.1000 
34    H14      1.5292  -40.4423   20.1061 H       1  LIG   0.0733   0.1000 
@<TRIPOS>BOND
1     2     1     ar
2     3     2     1
3     4     2     ar
4     5     4     1
5     6     4     ar
6     7     6     ar
7     8     7     1
8     9     8     1
9     10    8     1
10    11    10    1
11    12    11    ar
12    13    12    1
13    14    12    ar
14    15    14    1
15    16    14    ar
16    17    16    1
17    18    16    ar
18    19    11    ar
19    19    18    ar
20    20    19    1
21    21    1     ar
22    21    7     ar
23    21    20    1
24    22    6     1
25    23    22    1
26    24    22    1
27    25    22    1
28    26    10    2
29    27    20    1
30    28    27    1
31    29    27    1
32    30    29    1
33    31    29    1
34    32    27    1
35    32    29    1
36    33    32    1
37    34    32    1
@<TRIPOS>SUBSTRUCTURE
1   LIG    1    
 
########## Name        : 1VRT.lig
########## Description : AM1BCC_CHARGES =  -0.0002 ORIGINAL_CHARGES =  -0.0000

@<TRIPOS>MOLECULE
1VRT.lig
34    37    1     0     0    
SMALL
USER_CHARGES
@<TRIPOS>ATOM
1     N1       4.0540  -36.9310   22.2210 N.ar    1  LIG  -0.6650  -0.6200 
2     C1       4.9660  -36.2380   22.9390 C.ar    1  LIG   0.3947   0.1600 
3     H1       6.0082  -36.2811   22.6707 H       1  LIG   0.0281   0.1500 
4     C2       4.6240  -35.4500   24.0360 C.ar    1  LIG  -0.2334  -0.1500 
5     H2       5.3884  -34.9151   24.5740 H       1  LIG   0.1480   0.1500 
6     C3       3.3050  -35.3690   24.4150 C.ar    1  LIG  -0.0698  -0.1435 
7     C4       2.3460  -36.0770   23.6860 C.ar    1  LIG  -0.0398   0.1170 
8     N2       0.9890  -36.0280   24.1030 N.am    1  LIG  -0.4596  -0.5470 
9     H3       0.7643  -35.9928   25.0860 H       1  LIG   0.3311   0.3700 
10    C5      -0.1450  -36.0180   23.4080 C.2     1  LIG   0.7361   0.5438 
11    C6      -0.1190  -36.0770   21.8860 C.ar    1  LIG  -0.2550   0.0862 
12    C7      -1.1230  -35.3990   21.1890 C.ar    1  LIG  -0.0321  -0.1500 
13    H4      -1.7552  -34.6955   21.7041 H       1  LIG   0.1623   0.1500 
14    C8      -1.2960  -35.6300   19.8690 C.ar    1  LIG  -0.2723  -0.1500 
15    H5      -2.0662  -35.1073   19.3273 H       1  LIG   0.1522   0.1500 
16    C9      -0.4670  -36.5450   19.2400 C.ar    1  LIG   0.4373   0.1600 
17    H6      -0.5947  -36.7554   18.1915 H       1  LIG   0.0280   0.1500 
18    N3       0.5220  -37.2120   19.8740 N.ar    1  LIG  -0.6893  -0.6200 
19    C10      0.7040  -36.9790   21.1800 C.ar    1  LIG   0.6480   0.4100 
20    N4       1.7670  -37.6730   21.8260 N.pl3   1  LIG  -0.6924  -0.3690 
21    C11      2.7540  -36.8570   22.5840 C.ar    1  LIG   0.5805   0.4100 
22    C12      2.9040  -34.5090   25.6010 C.3     1  LIG  -0.0620   0.1435 
23    H7       2.2235  -33.7630   25.2820 H       1  LIG   0.0570   0.0000 
24    H8       2.4436  -35.1154   26.3371 H       1  LIG   0.0495   0.0000 
25    H9       3.7654  -34.0491   26.0108 H       1  LIG   0.0519   0.0000 
26    O1      -1.2400  -35.9060   23.9770 O.2     1  LIG  -0.6361  -0.5700 
27    C13      2.3440  -38.7570   21.0360 C.3     1  LIG   0.1354   0.0690 
28    H10      3.1238  -38.3754   20.4296 H       1  LIG   0.0981   0.1000 
29    C14      2.9380  -39.8900   21.8010 C.3     1  LIG  -0.1181  -0.2000 
30    H11      3.8890  -40.1268   21.3997 H       1  LIG   0.0732   0.1000 
31    H12      3.0430  -39.6129   22.8177 H       1  LIG   0.0789   0.1000 
32    C15      1.6390  -40.0610   21.0880 C.3     1  LIG  -0.1196  -0.2000 
33    H13      0.6832  -39.9283   21.5242 H       1  LIG   0.0807   0.1000 
34    H14      1.5292  -40.4423   20.1061 H       1  LIG   0.0733   0.1000 
@<TRIPOS>BOND
1     2     1     ar
2     3     2     1
3     4     2     ar
4     5     4     1
5     6     4     ar
6     7     6     ar
7     8     7     1
8     9     8     1
9     10    8     1
10    11    10    1
11    12    11    ar
12    13    12    1
13    14    12    ar
14    15    14    1
15    16    14    ar
16    17    16    1
17    18    16    ar
18    19    11    ar
19    19    18    ar
20    20    19    1
21    21    1     ar
22    21    7     ar
23    21    20    1
24    22    6     1
25    23    22    1
26    24    22    1
27    25    22    1
28    26    10    2
29    27    20    1
30    28    27    1
31    29    27    1
32    30    29    1
33    31    29    1
34    32    27    1
35    32    29    1
36    33    32    1
37    34    32    1
@<TRIPOS>SUBSTRUCTURE
1   LIG    1    
 
########## Name        : 1VRT.lig
########## Description : AM1BCC_CHARGES =  -0.0002 ORIGINAL_CHARGES =  -0.0000

@<TRIPOS>MOLECULE
1VRT.lig
34    37    1     0     0    
SMALL
USER_CHARGES
@<TRIPOS>ATOM
1     N1       4.0540  -36.9310   22.2210 N.ar    1  LIG  -0.6650  -0.6200 
2     C1       4.9660  -36.2380   22.9390 C.ar    1  LIG   0.3947   0.1600 
3     H1       6.0082  -36.2811   22.6707 H       1  LIG   0.0281   0.1500 
4     C2       4.6240  -35.4500   24.0360 C.ar    1  LIG  -0.2334  -0.1500 
5     H2       5.3884  -34.9151   24.5740 H       1  LIG   0.1480   0.1500 
6     C3       3.3050  -35.3690   24.4150 C.ar    1  LIG  -0.0698  -0.1435 
7     C4       2.3460  -36.0770   23.6860 C.ar    1  LIG  -0.0398   0.1170 
8     N2       0.9890  -36.0280   24.1030 N.am    1  LIG  -0.4596  -0.5470 
9     H3       0.7643  -35.9928   25.0860 H       1  LIG   0.3311   0.3700 
10    C5      -0.1450  -36.0180   23.4080 C.2     1  LIG   0.7361   0.5438 
11    C6      -0.1190  -36.0770   21.8860 C.ar    1  LIG  -0.2550   0.0862 
12    C7      -1.1230  -35.3990   21.1890 C.ar    1  LIG  -0.0321  -0.1500 
13    H4      -1.7552  -34.6955   21.7041 H       1  LIG   0.1623   0.1500 
14    C8      -1.2960  -35.6300   19.8690 C.ar    1  LIG  -0.2723  -0.1500 
15    H5      -2.0662  -35.1073   19.3273 H       1  LIG   0.1522   0.1500 
16    C9      -0.4670  -36.5450   19.2400 C.ar    1  LIG   0.4373   0.1600 
17    H6      -0.5947  -36.7554   18.1915 H       1  LIG   0.0280   0.1500 
18    N3       0.5220  -37.2120   19.8740 N.ar    1  LIG  -0.6893  -0.6200 
19    C10      0.7040  -36.9790   21.1800 C.ar    1  LIG   0.6480   0.4100 
20    N4       1.7670  -37.6730   21.8260 N.pl3   1  LIG  -0.6924  -0.3690 
21    C11      2.7540  -36.8570   22.5840 C.ar    1  LIG   0.5805   0.4100 
22    C12      2.9040  -34.5090   25.6010 C.3     1  LIG  -0.0620   0.1435 
23    H7       2.2235  -33.7630   25.2820 H       1  LIG   0.0570   0.0000 
24    H8       2.4436  -35.1154   26.3371 H       1  LIG   0.0495   0.0000 
25    H9       3.7654  -34.0491   26.0108 H       1  LIG   0.0519   0.0000 
26    O1      -1.2400  -35.9060   23.9770 O.2     1  LIG  -0.6361  -0.5700 
27    C13      2.3440  -38.7570   21.0360 C.3     1  LIG   0.1354   0.0690 
28    H10      3.1238  -38.3754   20.4296 H       1  LIG   0.0981   0.1000 
29    C14      2.9380  -39.8900   21.8010 C.3     1  LIG  -0.1181  -0.2000 
30    H11      3.8890  -40.1268   21.3997 H       1  LIG   0.0732   0.1000 
31    H12      3.0430  -39.6129   22.8177 H       1  LIG   0.0789   0.1000 
32    C15      1.6390  -40.0610   21.0880 C.3     1  LIG  -0.1196  -0.2000 
33    H13      0.6832  -39.9283   21.5242 H       1  LIG   0.0807   0.1000 
34    H14      1.5292  -40.4423   20.1061 H       1  LIG   0.0733   0.1000 
@<TRIPOS>BOND
1     2     1     ar
2     3     2     1
3     4     2     ar
4     5     4     1
5     6     4     ar
6     7     6     ar
7     8     7     1
8     9     8     1
9     10    8     1
10    11    10    1
11    12    11    ar
12    13    12    1
13    14    12    ar
14    15    14    1
15    16    14    ar
16    17    16    1
17    18    16    ar
18    19    11    ar
19    19    18    ar
20    20    19    1
21    21    1     ar
22    21    7     ar
23    21    20    1
24    22    6     1
25    23    22    1
26    24    22    1
27    25    22    1
28    26    10    2
29    27    20    1
30    28    27    1
31    29    27    1
32    30    29    1
33    31    29    1
34    32    27    1
35    32    29    1
36    33    32    1
37    34    32    1
@<TRIPOS>SUBSTRUCTURE
1   LIG    1    
 
########## Name        : 1VRT.lig
########## Description : AM1BCC_CHARGES =  -0.0002 ORIGINAL_CHARGES =  -0.0000

@<TRIPOS>MOLECULE
1VRT.lig
34    37    1     0     0    
SMALL
USER_CHARGES
@<TRIPOS>ATOM
1     N1       4.0540  -36.9310   22.2210 N.ar    1  LIG  -0.6650  -0.6200 
2     C1       4.9660  -36.2380   22.9390 C.ar    1  LIG   0.3947   0.1600 
3     H1       6.0082  -36.2811   22.6707 H       1  LIG   0.0281   0.1500 
4     C2       4.6240  -35.4500   24.0360 C.ar    1  LIG  -0.2334  -0.1500 
5     H2       5.3884  -34.9151   24.5740 H       1  LIG   0.1480   0.1500 
6     C3       3.3050  -35.3690   24.4150 C.ar    1  LIG  -0.0698  -0.1435 
7     C4       2.3460  -36.0770   23.6860 C.ar    1  LIG  -0.0398   0.1170 
8     N2       0.9890  -36.0280   24.1030 N.am    1  LIG  -0.4596  -0.5470 
9     H3       0.7643  -35.9928   25.0860 H       1  LIG   0.3311   0.3700 
10    C5      -0.1450  -36.0180   23.4080 C.2     1  LIG   0.7361   0.5438 
11    C6      -0.1190  -36.0770   21.8860 C.ar    1  LIG  -0.2550   0.0862 
12    C7      -1.1230  -35.3990   21.1890 C.ar    1  LIG  -0.0321  -0.1500 
13    H4      -1.7552  -34.6955   21.7041 H       1  LIG   0.1623   0.1500 
14    C8      -1.2960  -35.6300   19.8690 C.ar    1  LIG  -0.2723  -0.1500 
15    H5      -2.0662  -35.1073   19.3273 H       1  LIG   0.1522   0.1500 
16    C9      -0.4670  -36.5450   19.2400 C.ar    1  LIG   0.4373   0.1600 
17    H6      -0.5947  -36.7554   18.1915 H       1  LIG   0.0280   0.1500 
18    N3       0.5220  -37.2120   19.8740 N.ar    1  LIG  -0.6893  -0.6200 
19    C10      0.7040  -36.9790   21.1800 C.ar    1  LIG   0.6480   0.4100 
20    N4       1.7670  -37.6730   21.8260 N.pl3   1  LIG  -0.6924  -0.3690 
21    C11      2.7540  -36.8570   22.5840 C.ar    1  LIG   0.5805   0.4100 
22    C12      2.9040  -34.5090   25.6010 C.3     1  LIG  -0.0620   0.1435 
23    H7       2.2235  -33.7630   25.2820 H       1  LIG   0.0570   0.0000 
24    H8       2.4436  -35.1154   26.3371 H       1  LIG   0.0495   0.0000 
25    H9       3.7654  -34.0491   26.0108 H       1  LIG   0.0519   0.0000 
26    O1      -1.2400  -35.9060   23.9770 O.2     1  LIG  -0.6361  -0.5700 
27    C13      2.3440  -38.7570   21.0360 C.3     1  LIG   0.1354   0.0690 
28    H10      3.1238  -38.3754   20.4296 H       1  LIG   0.0981   0.1000 
29    C14      2.9380  -39.8900   21.8010 C.3     1  LIG  -0.1181  -0.2000 
30    H11      3.8890  -40.1268   21.3997 H       1  LIG   0.0732   0.1000 
31    H12      3.0430  -39.6129   22.8177 H       1  LIG   0.0789   0.1000 
32    C15      1.6390  -40.0610   21.0880 C.3     1  LIG  -0.1196  -0.2000 
33    H13      0.6832  -39.9283   21.5242 H       1  LIG   0.0807   0.1000 
34    H14      1.5292  -40.4423   20.1061 H       1  LIG   0.0733   0.1000 
@<TRIPOS>BOND
1     2     1     ar
2     3     2     1
3     4     2     ar
4     5     4     1
5     6     4     ar
6     7     6     ar
7     8     7     1
8     9     8     1
9     10    8     1
10    11    10    1
11    12    11    ar
12    13    12    1
13    14    12    ar
14    15    14    1
15    16    14    ar
16    17    16    1
17    18    16    ar
18    19    11    ar
19    19    18    ar
20    20    19    1
21    21    1     ar
22    21    7     ar
23    21    20    1
24    22    6     1
25    23    22    1
26    24    22    1
27    25    22    1
28    26    10    2
29    27    20    1
30    28    27    1
31    29    27    1
32    30    29    1
33    31    29    1
34    32    27    1
35    32    29    1
36    33    32    1
37    34    32    1
@<TRIPOS>SUBSTRUCTURE
1   LIG    1    
 
########## Name        : 1VRT.lig
########## Description : AM1BCC_CHARGES =  -0.0002 ORIGINAL_CHARGES =  -0.0000

@<TRIPOS>MOLECULE
1VRT.lig
34    37    1     0     0    
SMALL
USER_CHARGES
@<TRIPOS>ATOM
1     N1       4.0540  -36.9310   22.2210 N.ar    1  LIG  -0.6650  -0.6200 
2     C1       4.9660  -36.2380   22.9390 C.ar    1  LIG   0.3947   0.1600 
3     H1       6.0082  -36.2811   22.6707 H       1  LIG   0.0281   0.1500 
4     C2       4.6240  -35.4500   24.0360 C.ar    1  LIG  -0.2334  -0.1500 
5     H2       5.3884  -34.9151   24.5740 H       1  LIG   0.1480   0.1500 
6     C3       3.3050  -35.3690   24.4150 C.ar    1  LIG  -0.0698  -0.1435 
7     C4       2.3460  -36.0770   23.6860 C.ar    1  LIG  -0.0398   0.1170 
8     N2       0.9890  -36.0280   24.1030 N.am    1  LIG  -0.4596  -0.5470 
9     H3       0.7643  -35.9928   25.0860 H       1  LIG   0.3311   0.3700 
10    C5      -0.1450  -36.0180   23.4080 C.2     1  LIG   0.7361   0.5438 
11    C6      -0.1190  -36.0770   21.8860 C.ar    1  LIG  -0.2550   0.0862 
12    C7      -1.1230  -35.3990   21.1890 C.ar    1  LIG  -0.0321  -0.1500 
13    H4      -1.7552  -34.6955   21.7041 H       1  LIG   0.1623   0.1500 
14    C8      -1.2960  -35.6300   19.8690 C.ar    1  LIG  -0.2723  -0.1500 
15    H5      -2.0662  -35.1073   19.3273 H       1  LIG   0.1522   0.1500 
16    C9      -0.4670  -36.5450   19.2400 C.ar    1  LIG   0.4373   0.1600 
17    H6      -0.5947  -36.7554   18.1915 H       1  LIG   0.0280   0.1500 
18    N3       0.5220  -37.2120   19.8740 N.ar    1  LIG  -0.6893  -0.6200 
19    C10      0.7040  -36.9790   21.1800 C.ar    1  LIG   0.6480   0.4100 
20    N4       1.7670  -37.6730   21.8260 N.pl3   1  LIG  -0.6924  -0.3690 
21    C11      2.7540  -36.8570   22.5840 C.ar    1  LIG   0.5805   0.4100 
22    C12      2.9040  -34.5090   25.6010 C.3     1  LIG  -0.0620   0.1435 
23    H7       2.2235  -33.7630   25.2820 H       1  LIG   0.0570   0.0000 
24    H8       2.4436  -35.1154   26.3371 H       1  LIG   0.0495   0.0000 
25    H9       3.7654  -34.0491   26.0108 H       1  LIG   0.0519   0.0000 
26    O1      -1.2400  -35.9060   23.9770 O.2     1  LIG  -0.6361  -0.5700 
27    C13      2.3440  -38.7570   21.0360 C.3     1  LIG   0.1354   0.0690 
28    H10      3.1238  -38.3754   20.4296 H       1  LIG   0.0981   0.1000 
29    C14      2.9380  -39.8900   21.8010 C.3     1  LIG  -0.1181  -0.2000 
30    H11      3.8890  -40.1268   21.3997 H       1  LIG   0.0732   0.1000 
31    H12      3.0430  -39.6129   22.8177 H       1  LIG   0.0789   0.1000 
32    C15      1.6390  -40.0610   21.0880 C.3     1  LIG  -0.1196  -0.2000 
33    H13      0.6832  -39.9283   21.5242 H       1  LIG   0.0807   0.1000 
34    H14      1.5292  -40.4423   20.1061 H       1  LIG   0.0733   0.1000 
@<TRIPOS>BOND
1     2     1     ar
2     3     2     1
3     4     2     ar
4     5     4     1
5     6     4     ar
6     7     6     ar
7     8     7     1
8     9     8     1
9     10    8     1
10    11    10    1
11    12    11    ar
12    13    12    1
13    14    12    ar
14    15    14    1
15    16    14    ar
16    17    16    1
17    18    16    ar
18    19    11    ar
19    19    18    ar
20    20    19    1
21    21    1     ar
22    21    7     ar
23    21    20    1
24    22    6     1
25    23    22    1
26    24    22    1
27    25    22    1
28    26    10    2
29    27    20    1
30    28    27    1
31    29    27    1
32    30    29    1
33    31    29    1
34    32    27    1
35    32    29    1
36    33    32    1
37    34    32    1
@<TRIPOS>SUBSTRUCTURE
1   LIG    1    
 
########## Name        : 1VRT.lig
########## Description : AM1BCC_CHARGES =  -0.0002 ORIGINAL_CHARGES =  -0.0000

@<TRIPOS>MOLECULE
1VRT.lig
34    37    1     0     0    
SMALL
USER_CHARGES
@<TRIPOS>ATOM
1     N1       4.0540  -36.9310   22.2210 N.ar    1  LIG  -0.6650  -0.6200 
2     C1       4.9660  -36.2380   22.9390 C.ar    1  LIG   0.3947   0.1600 
3     H1       6.0082  -36.2811   22.6707 H       1  LIG   0.0281   0.1500 
4     C2       4.6240  -35.4500   24.0360 C.ar    1  LIG  -0.2334  -0.1500 
5     H2       5.3884  -34.9151   24.5740 H       1  LIG   0.1480   0.1500 
6     C3       3.3050  -35.3690   24.4150 C.ar    1  LIG  -0.0698  -0.1435 
7     C4       2.3460  -36.0770   23.6860 C.ar    1  LIG  -0.0398   0.1170 
8     N2       0.9890  -36.0280   24.1030 N.am    1  LIG  -0.4596  -0.5470 
9     H3       0.7643  -35.9928   25.0860 H       1  LIG   0.3311   0.3700 
10    C5      -0.1450  -36.0180   23.4080 C.2     1  LIG   0.7361   0.5438 
11    C6      -0.1190  -36.0770   21.8860 C.ar    1  LIG  -0.2550   0.0862 
12    C7      -1.1230  -35.3990   21.1890 C.ar    1  LIG  -0.0321  -0.1500 
13    H4      -1.7552  -34.6955   21.7041 H       1  LIG   0.1623   0.1500 
14    C8      -1.2960  -35.6300   19.8690 C.ar    1  LIG  -0.2723  -0.1500 
15    H5      -2.0662  -35.1073   19.3273 H       1  LIG   0.1522   0.1500 
16    C9      -0.4670  -36.5450   19.2400 C.ar    1  LIG   0.4373   0.1600 
17    H6      -0.5947  -36.7554   18.1915 H       1  LIG   0.0280   0.1500 
18    N3       0.5220  -37.2120   19.8740 N.ar    1  LIG  -0.6893  -0.6200 
19    C10      0.7040  -36.9790   21.1800 C.ar    1  LIG   0.6480   0.4100 
20    N4       1.7670  -37.6730   21.8260 N.pl3   1  LIG  -0.6924  -0.3690 
21    C11      2.7540  -36.8570   22.5840 C.ar    1  LIG   0.5805   0.4100 
22    C12      2.9040  -34.5090   25.6010 C.3     1  LIG  -0.0620   0.1435 
23    H7       2.2235  -33.7630   25.2820 H       1  LIG   0.0570   0.0000 
24    H8       2.4436  -35.1154   26.3371 H       1  LIG   0.0495   0.0000 
25    H9       3.7654  -34.0491   26.0108 H       1  LIG   0.0519   0.0000 
26    O1      -1.2400  -35.9060   23.9770 O.2     1  LIG  -0.6361  -0.5700 
27    C13      2.3440  -38.7570   21.0360 C.3     1  LIG   0.1354   0.0690 
28    H10      3.1238  -38.3754   20.4296 H       1  LIG   0.0981   0.1000 
29    C14      2.9380  -39.8900   21.8010 C.3     1  LIG  -0.1181  -0.2000 
30    H11      3.8890  -40.1268   21.3997 H       1  LIG   0.0732   0.1000 
31    H12      3.0430  -39.6129   22.8177 H       1  LIG   0.0789   0.1000 
32    C15      1.6390  -40.0610   21.0880 C.3     1  LIG  -0.1196  -0.2000 
33    H13      0.6832  -39.9283   21.5242 H       1  LIG   0.0807   0.1000 
34    H14      1.5292  -40.4423   20.1061 H       1  LIG   0.0733   0.1000 
@<TRIPOS>BOND
1     2     1     ar
2     3     2     1
3     4     2     ar
4     5     4     1
5     6     4     ar
6     7     6     ar
7     8     7     1
8     9     8     1
9     10    8     1
10    11    10    1
11    12    11    ar
12    13    12    1
13    14    12    ar
14    15    14    1
15    16    14    ar
16    17    16    1
17    18    16    ar
18    19    11    ar
19    19    18    ar
20    20    19    1
21    21    1     ar
22    21    7     ar
23    21    20    1
24    22    6     1
25    23    22    1
26    24    22    1
27    25    22    1
28    26    10    2
29    27    20    1
30    28    27    1
31    29    27    1
32    30    29    1
33    31    29    1
34    32    27    1
35    32    29    1
36    33    32    1
37    34    32    1
@<TRIPOS>SUBSTRUCTURE
1   LIG    1    
 
########## Name        : 1VRT.lig
########## Description : AM1BCC_CHARGES =  -0.0002 ORIGINAL_CHARGES =  -0.0000

@<TRIPOS>MOLECULE
1VRT.lig
34    37    1     0     0    
SMALL
USER_CHARGES
@<TRIPOS>ATOM
1     N1       4.0540  -36.9310   22.2210 N.ar    1  LIG  -0.6650  -0.6200 
2     C1       4.9660  -36.2380   22.9390 C.ar    1  LIG   0.3947   0.1600 
3     H1       6.0082  -36.2811   22.6707 H       1  LIG   0.0281   0.1500 
4     C2       4.6240  -35.4500   24.0360 C.ar    1  LIG  -0.2334  -0.1500 
5     H2       5.3884  -34.9151   24.5740 H       1  LIG   0.1480   0.1500 
6     C3       3.3050  -35.3690   24.4150 C.ar    1  LIG  -0.0698  -0.1435 
7     C4       2.3460  -36.0770   23.6860 C.ar    1  LIG  -0.0398   0.1170 
8     N2       0.9890  -36.0280   24.1030 N.am    1  LIG  -0.4596  -0.5470 
9     H3       0.7643  -35.9928   25.0860 H       1  LIG   0.3311   0.3700 
10    C5      -0.1450  -36.0180   23.4080 C.2     1  LIG   0.7361   0.5438 
11    C6      -0.1190  -36.0770   21.8860 C.ar    1  LIG  -0.2550   0.0862 
12    C7      -1.1230  -35.3990   21.1890 C.ar    1  LIG  -0.0321  -0.1500 
13    H4      -1.7552  -34.6955   21.7041 H       1  LIG   0.1623   0.1500 
14    C8      -1.2960  -35.6300   19.8690 C.ar    1  LIG  -0.2723  -0.1500 
15    H5      -2.0662  -35.1073   19.3273 H       1  LIG   0.1522   0.1500 
16    C9      -0.4670  -36.5450   19.2400 C.ar    1  LIG   0.4373   0.1600 
17    H6      -0.5947  -36.7554   18.1915 H       1  LIG   0.0280   0.1500 
18    N3       0.5220  -37.2120   19.8740 N.ar    1  LIG  -0.6893  -0.6200 
19    C10      0.7040  -36.9790   21.1800 C.ar    1  LIG   0.6480   0.4100 
20    N4       1.7670  -37.6730   21.8260 N.pl3   1  LIG  -0.6924  -0.3690 
21    C11      2.7540  -36.8570   22.5840 C.ar    1  LIG   0.5805   0.4100 
22    C12      2.9040  -34.5090   25.6010 C.3     1  LIG  -0.0620   0.1435 
23    H7       2.2235  -33.7630   25.2820 H       1  LIG   0.0570   0.0000 
24    H8       2.4436  -35.1154   26.3371 H       1  LIG   0.0495   0.0000 
25    H9       3.7654  -34.0491   26.0108 H       1  LIG   0.0519   0.0000 
26    O1      -1.2400  -35.9060   23.9770 O.2     1  LIG  -0.6361  -0.5700 
27    C13      2.3440  -38.7570   21.0360 C.3     1  LIG   0.1354   0.0690 
28    H10      3.1238  -38.3754   20.4296 H       1  LIG   0.0981   0.1000 
29    C14      2.9380  -39.8900   21.8010 C.3     1  LIG  -0.1181  -0.2000 
30    H11      3.8890  -40.1268   21.3997 H       1  LIG   0.0732   0.1000 
31    H12      3.0430  -39.6129   22.8177 H       1  LIG   0.0789   0.1000 
32    C15      1.6390  -40.0610   21.0880 C.3     1  LIG  -0.1196  -0.2000 
33    H13      0.6832  -39.9283   21.5242 H       1  LIG   0.0807   0.1000 
34    H14      1.5292  -40.4423   20.1061 H       1  LIG   0.0733   0.1000 
@<TRIPOS>BOND
1     2     1     ar
2     3     2     1
3     4     2     ar
4     5     4     1
5     6     4     ar
6     7     6     ar
7     8     7     1
8     9     8     1
9     10    8     1
10    11    10    1
11    12    11    ar
12    13    12    1
13    14    12    ar
14    15    14    1
15    16    14    ar
16    17    16    1
17    18    16    ar
18    19    11    ar
19    19    18    ar
20    20    19    1
21    21    1     ar
22    21    7     ar
23    21    20    1
24    22    6     1
25    23    22    1
26    24    22    1
27    25    22    1
28    26    10    2
29    27    20    1
30    28    27    1
31    29    27    1
32    30    29    1
33    31    29    1
34    32    27    1
35    32    29    1
36    33    32    1
37    34    32    1
@<TRIPOS>SUBSTRUCTURE
1   LIG    1    
 
########## Name        : 1VRT.lig
########## Description : AM1BCC_CHARGES =  -0.0002 ORIGINAL_CHARGES =  -0.0000

@<TRIPOS>MOLECULE
1VRT.lig
34    37    1     0     0    
SMALL
USER_CHARGES
@<TRIPOS>ATOM
1     N1       4.0540  -36.9310   22.2210 N.ar    1  LIG  -0.6650  -0.6200 
2     C1       4.9660  -36.2380   22.9390 C.ar    1  LIG   0.3947   0.1600 
3     H1       6.0082  -36.2811   22.6707 H       1  LIG   0.0281   0.1500 
4     C2       4.6240  -35.4500   24.0360 C.ar    1  LIG  -0.2334  -0.1500 
5     H2       5.3884  -34.9151   24.5740 H       1  LIG   0.1480   0.1500 
6     C3       3.3050  -35.3690   24.4150 C.ar    1  LIG  -0.0698  -0.1435 
7     C4       2.3460  -36.0770   23.6860 C.ar    1  LIG  -0.0398   0.1170 
8     N2       0.9890  -36.0280   24.1030 N.am    1  LIG  -0.4596  -0.5470 
9     H3       0.7643  -35.9928   25.0860 H       1  LIG   0.3311   0.3700 
10    C5      -0.1450  -36.0180   23.4080 C.2     1  LIG   0.7361   0.5438 
11    C6      -0.1190  -36.0770   21.8860 C.ar    1  LIG  -0.2550   0.0862 
12    C7      -1.1230  -35.3990   21.1890 C.ar    1  LIG  -0.0321  -0.1500 
13    H4      -1.7552  -34.6955   21.7041 H       1  LIG   0.1623   0.1500 
14    C8      -1.2960  -35.6300   19.8690 C.ar    1  LIG  -0.2723  -0.1500 
15    H5      -2.0662  -35.1073   19.3273 H       1  LIG   0.1522   0.1500 
16    C9      -0.4670  -36.5450   19.2400 C.ar    1  LIG   0.4373   0.1600 
17    H6      -0.5947  -36.7554   18.1915 H       1  LIG   0.0280   0.1500 
18    N3       0.5220  -37.2120   19.8740 N.ar    1  LIG  -0.6893  -0.6200 
19    C10      0.7040  -36.9790   21.1800 C.ar    1  LIG   0.6480   0.4100 
20    N4       1.7670  -37.6730   21.8260 N.pl3   1  LIG  -0.6924  -0.3690 
21    C11      2.7540  -36.8570   22.5840 C.ar    1  LIG   0.5805   0.4100 
22    C12      2.9040  -34.5090   25.6010 C.3     1  LIG  -0.0620   0.1435 
23    H7       2.2235  -33.7630   25.2820 H       1  LIG   0.0570   0.0000 
24    H8       2.4436  -35.1154   26.3371 H       1  LIG   0.0495   0.0000 
25    H9       3.7654  -34.0491   26.0108 H       1  LIG   0.0519   0.0000 
26    O1      -1.2400  -35.9060   23.9770 O.2     1  LIG  -0.6361  -0.5700 
27    C13      2.3440  -38.7570   21.0360 C.3     1  LIG   0.1354   0.0690 
28    H10      3.1238  -38.3754   20.4296 H       1  LIG   0.0981   0.1000 
29    C14      2.9380  -39.8900   21.8010 C.3     1  LIG  -0.1181  -0.2000 
30    H11      3.8890  -40.1268   21.3997 H       1  LIG   0.0732   0.1000 
31    H12      3.0430  -39.6129   22.8177 H       1  LIG   0.0789   0.1000 
32    C15      1.6390  -40.0610   21.0880 C.3     1  LIG  -0.1196  -0.2000 
33    H13      0.6832  -39.9283   21.5242 H       1  LIG   0.0807   0.1000 
34    H14      1.5292  -40.4423   20.1061 H       1  LIG   0.0733   0.1000 
@<TRIPOS>BOND
1     2     1     ar
2     3     2     1
3     4     2     ar
4     5     4     1
5     6     4     ar
6     7     6     ar
7     8     7     1
8     9     8     1
9     10    8     1
10    11    10    1
11    12    11    ar
12    13    12    1
13    14    12    ar
14    15    14    1
15    16    14    ar
16    17    16    1
17    18    16    ar
18    19    11    ar
19    19    18    ar
20    20    19    1
21    21    1     ar
22    21    7     ar
23    21    20    1
24    22    6     1
25    23    22    1
26    24    22    1
27    25    22    1
28    26    10    2
29    27    20    1
30    28    27    1
31    29    27    1
32    30    29    1
33    31    29    1
34    32    27    1
35    32    29    1
36    33    32    1
37    34    32    1
@<TRIPOS>SUBSTRUCTURE
1   LIG    1    
 
########## Name        : 1VRT.lig
########## Description : AM1BCC_CHARGES =  -0.0002 ORIGINAL_CHARGES =  -0.0000

@<TRIPOS>MOLECULE
1VRT.lig
34    37    1     0     0    
SMALL
USER_CHARGES
@<TRIPOS>ATOM
1     N1       4.0540  -36.9310   22.2210 N.ar    1  LIG  -0.6650  -0.6200 
2     C1       4.9660  -36.2380   22.9390 C.ar    1  LIG   0.3947   0.1600 
3     H1       6.0082  -36.2811   22.6707 H       1  LIG   0.0281   0.1500 
4     C2       4.6240  -35.4500   24.0360 C.ar    1  LIG  -0.2334  -0.1500 
5     H2       5.3884  -34.9151   24.5740 H       1  LIG   0.1480   0.1500 
6     C3       3.3050  -35.3690   24.4150 C.ar    1  LIG  -0.0698  -0.1435 
7     C4       2.3460  -36.0770   23.6860 C.ar    1  LIG  -0.0398   0.1170 
8     N2       0.9890  -36.0280   24.1030 N.am    1  LIG  -0.4596  -0.5470 
9     H3       0.7643  -35.9928   25.0860 H       1  LIG   0.3311   0.3700 
10    C5      -0.1450  -36.0180   23.4080 C.2     1  LIG   0.7361   0.5438 
11    C6      -0.1190  -36.0770   21.8860 C.ar    1  LIG  -0.2550   0.0862 
12    C7      -1.1230  -35.3990   21.1890 C.ar    1  LIG  -0.0321  -0.1500 
13    H4      -1.7552  -34.6955   21.7041 H       1  LIG   0.1623   0.1500 
14    C8      -1.2960  -35.6300   19.8690 C.ar    1  LIG  -0.2723  -0.1500 
15    H5      -2.0662  -35.1073   19.3273 H       1  LIG   0.1522   0.1500 
16    C9      -0.4670  -36.5450   19.2400 C.ar    1  LIG   0.4373   0.1600 
17    H6      -0.5947  -36.7554   18.1915 H       1  LIG   0.0280   0.1500 
18    N3       0.5220  -37.2120   19.8740 N.ar    1  LIG  -0.6893  -0.6200 
19    C10      0.7040  -36.9790   21.1800 C.ar    1  LIG   0.6480   0.4100 
20    N4       1.7670  -37.6730   21.8260 N.pl3   1  LIG  -0.6924  -0.3690 
21    C11      2.7540  -36.8570   22.5840 C.ar    1  LIG   0.5805   0.4100 
22    C12      2.9040  -34.5090   25.6010 C.3     1  LIG  -0.0620   0.1435 
23    H7       2.2235  -33.7630   25.2820 H       1  LIG   0.0570   0.0000 
24    H8       2.4436  -35.1154   26.3371 H       1  LIG   0.0495   0.0000 
25    H9       3.7654  -34.0491   26.0108 H       1  LIG   0.0519   0.0000 
26    O1      -1.2400  -35.9060   23.9770 O.2     1  LIG  -0.6361  -0.5700 
27    C13      2.3440  -38.7570   21.0360 C.3     1  LIG   0.1354   0.0690 
28    H10      3.1238  -38.3754   20.4296 H       1  LIG   0.0981   0.1000 
29    C14      2.9380  -39.8900   21.8010 C.3     1  LIG  -0.1181  -0.2000 
30    H11      3.8890  -40.1268   21.3997 H       1  LIG   0.0732   0.1000 
31    H12      3.0430  -39.6129   22.8177 H       1  LIG   0.0789   0.1000 
32    C15      1.6390  -40.0610   21.0880 C.3     1  LIG  -0.1196  -0.2000 
33    H13      0.6832  -39.9283   21.5242 H       1  LIG   0.0807   0.1000 
34    H14      1.5292  -40.4423   20.1061 H       1  LIG   0.0733   0.1000 
@<TRIPOS>BOND
1     2     1     ar
2     3     2     1
3     4     2     ar
4     5     4     1
5     6     4     ar
6     7     6     ar
7     8     7     1
8     9     8     1
9     10    8     1
10    11    10    1
11    12    11    ar
12    13    12    1
13    14    12    ar
14    15    14    1
15    16    14    ar
16    17    16    1
17    18    16    ar
18    19    11    ar
19    19    18    ar
20    20    19    1
21    21    1     ar
22    21    7     ar
23    21    20    1
24    22    6     1
25    23    22    1
26    24    22    1
27    25    22    1
28    26    10    2
29    27    20    1
30    28    27    1
31    29    27    1
32    30    29    1
33    31    29    1
34    32    27    1
35    32    29    1
36    33    32    1
37    34    32    1
@<TRIPOS>SUBSTRUCTURE
1   LIG    1    
 
########## Name        : 1VRT.lig
########## Description : AM1BCC_CHARGES =  -0.0002 ORIGINAL_CHARGES =  -0.0000

@<TRIPOS>MOLECULE
1VRT.lig
34    37    1     0     0    
SMALL
USER_CHARGES
@<TRIPOS>ATOM
1     N1       4.0540  -36.9310   22.2210 N.ar    1  LIG  -0.6650  -0.6200 
2     C1       4.9660  -36.2380   22.9390 C.ar    1  LIG   0.3947   0.1600 
3     H1       6.0082  -36.2811   22.6707 H       1  LIG   0.0281   0.1500 
4     C2       4.6240  -35.4500   24.0360 C.ar    1  LIG  -0.2334  -0.1500 
5     H2       5.3884  -34.9151   24.5740 H       1  LIG   0.1480   0.1500 
6     C3       3.3050  -35.3690   24.4150 C.ar    1  LIG  -0.0698  -0.1435 
7     C4       2.3460  -36.0770   23.6860 C.ar    1  LIG  -0.0398   0.1170 
8     N2       0.9890  -36.0280   24.1030 N.am    1  LIG  -0.4596  -0.5470 
9     H3       0.7643  -35.9928   25.0860 H       1  LIG   0.3311   0.3700 
10    C5      -0.1450  -36.0180   23.4080 C.2     1  LIG   0.7361   0.5438 
11    C6      -0.1190  -36.0770   21.8860 C.ar    1  LIG  -0.2550   0.0862 
12    C7      -1.1230  -35.3990   21.1890 C.ar    1  LIG  -0.0321  -0.1500 
13    H4      -1.7552  -34.6955   21.7041 H       1  LIG   0.1623   0.1500 
14    C8      -1.2960  -35.6300   19.8690 C.ar    1  LIG  -0.2723  -0.1500 
15    H5      -2.0662  -35.1073   19.3273 H       1  LIG   0.1522   0.1500 
16    C9      -0.4670  -36.5450   19.2400 C.ar    1  LIG   0.4373   0.1600 
17    H6      -0.5947  -36.7554   18.1915 H       1  LIG   0.0280   0.1500 
18    N3       0.5220  -37.2120   19.8740 N.ar    1  LIG  -0.6893  -0.6200 
19    C10      0.7040  -36.9790   21.1800 C.ar    1  LIG   0.6480   0.4100 
20    N4       1.7670  -37.6730   21.8260 N.pl3   1  LIG  -0.6924  -0.3690 
21    C11      2.7540  -36.8570   22.5840 C.ar    1  LIG   0.5805   0.4100 
22    C12      2.9040  -34.5090   25.6010 C.3     1  LIG  -0.0620   0.1435 
23    H7       2.2235  -33.7630   25.2820 H       1  LIG   0.0570   0.0000 
24    H8       2.4436  -35.1154   26.3371 H       1  LIG   0.0495   0.0000 
25    H9       3.7654  -34.0491   26.0108 H       1  LIG   0.0519   0.0000 
26    O1      -1.2400  -35.9060   23.9770 O.2     1  LIG  -0.6361  -0.5700 
27    C13      2.3440  -38.7570   21.0360 C.3     1  LIG   0.1354   0.0690 
28    H10      3.1238  -38.3754   20.4296 H       1  LIG   0.0981   0.1000 
29    C14      2.9380  -39.8900   21.8010 C.3     1  LIG  -0.1181  -0.2000 
30    H11      3.8890  -40.1268   21.3997 H       1  LIG   0.0732   0.1000 
31    H12      3.0430  -39.6129   22.8177 H       1  LIG   0.0789   0.1000 
32    C15      1.6390  -40.0610   21.0880 C.3     1  LIG  -0.1196  -0.2000 
33    H13      0.6832  -39.9283   21.5242 H       1  LIG   0.0807   0.1000 
34    H14      1.5292  -40.4423   20.1061 H       1  LIG   0.0733   0.1000 
@<TRIPOS>BOND
1     2     1     ar
2     3     2     1
3     4     2     ar
4     5     4     1
5     6     4     ar
6     7     6     ar
7     8     7     1
8     9     8     1
9     10    8     1
10    11    10    1
11    12    11    ar
12    13    12    1
13    14    12    ar
14    15    14    1
15    16    14    ar
16    17    16    1
17    18    16    ar
18    19    11    ar
19    19    18    ar
20    20    19    1
21    21    1     ar
22    21    7     ar
23    21    20    1
24    22    6     1
25    23    22    1
26    24    22    1
27    25    22    1
28    26    10    2
29    27    20    1
30    28    27    1
31    29    27    1
32    30    29    1
33    31    29    1
34    32    27    1
35    32    29    1
36    33    32    1
37    34    32    1
@<TRIPOS>SUBSTRUCTURE
1   LIG    1    
 
########## Name        : 1VRT.lig
########## Description : AM1BCC_CHARGES =  -0.0002 ORIGINAL_CHARGES =  -0.0000

@<TRIPOS>MOLECULE
1VRT.lig
34    37    1     0     0    
SMALL
USER_CHARGES
@<TRIPOS>ATOM
1     N1       4.0540  -36.9310   22.2210 N.ar    1  LIG  -0.6650  -0.6200 
2     C1       4.9660  -36.2380   22.9390 C.ar    1  LIG   0.3947   0.1600 
3     H1       6.0082  -36.2811   22.6707 H       1  LIG   0.0281   0.1500 
4     C2       4.6240  -35.4500   24.0360 C.ar    1  LIG  -0.2334  -0.1500 
5     H2       5.3884  -34.9151   24.5740 H       1  LIG   0.1480   0.1500 
6     C3       3.3050  -35.3690   24.4150 C.ar    1  LIG  -0.0698  -0.1435 
7     C4       2.3460  -36.0770   23.6860 C.ar    1  LIG  -0.0398   0.1170 
8     N2       0.9890  -36.0280   24.1030 N.am    1  LIG  -0.4596  -0.5470 
9     H3       0.7643  -35.9928   25.0860 H       1  LIG   0.3311   0.3700 
10    C5      -0.1450  -36.0180   23.4080 C.2     1  LIG   0.7361   0.5438 
11    C6      -0.1190  -36.0770   21.8860 C.ar    1  LIG  -0.2550   0.0862 
12    C7      -1.1230  -35.3990   21.1890 C.ar    1  LIG  -0.0321  -0.1500 
13    H4      -1.7552  -34.6955   21.7041 H       1  LIG   0.1623   0.1500 
14    C8      -1.2960  -35.6300   19.8690 C.ar    1  LIG  -0.2723  -0.1500 
15    H5      -2.0662  -35.1073   19.3273 H       1  LIG   0.1522   0.1500 
16    C9      -0.4670  -36.5450   19.2400 C.ar    1  LIG   0.4373   0.1600 
17    H6      -0.5947  -36.7554   18.1915 H       1  LIG   0.0280   0.1500 
18    N3       0.5220  -37.2120   19.8740 N.ar    1  LIG  -0.6893  -0.6200 
19    C10      0.7040  -36.9790   21.1800 C.ar    1  LIG   0.6480   0.4100 
20    N4       1.7670  -37.6730   21.8260 N.pl3   1  LIG  -0.6924  -0.3690 
21    C11      2.7540  -36.8570   22.5840 C.ar    1  LIG   0.5805   0.4100 
22    C12      2.9040  -34.5090   25.6010 C.3     1  LIG  -0.0620   0.1435 
23    H7       2.2235  -33.7630   25.2820 H       1  LIG   0.0570   0.0000 
24    H8       2.4436  -35.1154   26.3371 H       1  LIG   0.0495   0.0000 
25    H9       3.7654  -34.0491   26.0108 H       1  LIG   0.0519   0.0000 
26    O1      -1.2400  -35.9060   23.9770 O.2     1  LIG  -0.6361  -0.5700 
27    C13      2.3440  -38.7570   21.0360 C.3     1  LIG   0.1354   0.0690 
28    H10      3.1238  -38.3754   20.4296 H       1  LIG   0.0981   0.1000 
29    C14      2.9380  -39.8900   21.8010 C.3     1  LIG  -0.1181  -0.2000 
30    H11      3.8890  -40.1268   21.3997 H       1  LIG   0.0732   0.1000 
31    H12      3.0430  -39.6129   22.8177 H       1  LIG   0.0789   0.1000 
32    C15      1.6390  -40.0610   21.0880 C.3     1  LIG  -0.1196  -0.2000 
33    H13      0.6832  -39.9283   21.5242 H       1  LIG   0.0807   0.1000 
34    H14      1.5292  -40.4423   20.1061 H       1  LIG   0.0733   0.1000 
@<TRIPOS>BOND
1     2     1     ar
2     3     2     1
3     4     2     ar
4     5     4     1
5     6     4     ar
6     7     6     ar
7     8     7     1
8     9     8     1
9     10    8     1
10    11    10    1
11    12    11    ar
12    13    12    1
13    14    12    ar
14    15    14    1
15    16    14    ar
16    17    16    1
17    18    16    ar
18    19    11    ar
19    19    18    ar
20    20    19    1
21    21    1     ar
22    21    7     ar
23    21    20    1
24    22    6     1
25    23    22    1
26    24    22    1
27    25    22    1
28    26    10    2
29    27    20    1
30    28    27    1
31    29    27    1
32    30    29    1
33    31    29    1
34    32    27    1
35    32    29    1
36    33    32    1
37    34    32    1
@<TRIPOS>SUBSTRUCTURE
1   LIG    1    
 
########## Name        : 1VRT.lig
########## Description : AM1BCC_CHARGES =  -0.0002 ORIGINAL_CHARGES =  -0.0000

@<TRIPOS>MOLECULE
1VRT.lig
34    37    1     0     0    
SMALL
USER_CHARGES
@<TRIPOS>ATOM
1     N1       4.0540  -36.9310   22.2210 N.ar    1  LIG  -0.6650  -0.6200 
2     C1       4.9660  -36.2380   22.9390 C.ar    1  LIG   0.3947   0.1600 
3     H1       6.0082  -36.2811   22.6707 H       1  LIG   0.0281   0.1500 
4     C2       4.6240  -35.4500   24.0360 C.ar    1  LIG  -0.2334  -0.1500 
5     H2       5.3884  -34.9151   24.5740 H       1  LIG   0.1480   0.1500 
6     C3       3.3050  -35.3690   24.4150 C.ar    1  LIG  -0.0698  -0.1435 
7     C4       2.3460  -36.0770   23.6860 C.ar    1  LIG  -0.0398   0.1170 
8     N2       0.9890  -36.0280   24.1030 N.am    1  LIG  -0.4596  -0.5470 
9     H3       0.7643  -35.9928   25.0860 H       1  LIG   0.3311   0.3700 
10    C5      -0.1450  -36.0180   23.4080 C.2     1  LIG   0.7361   0.5438 
11    C6      -0.1190  -36.0770   21.8860 C.ar    1  LIG  -0.2550   0.0862 
12    C7      -1.1230  -35.3990   21.1890 C.ar    1  LIG  -0.0321  -0.1500 
13    H4      -1.7552  -34.6955   21.7041 H       1  LIG   0.1623   0.1500 
14    C8      -1.2960  -35.6300   19.8690 C.ar    1  LIG  -0.2723  -0.1500 
15    H5      -2.0662  -35.1073   19.3273 H       1  LIG   0.1522   0.1500 
16    C9      -0.4670  -36.5450   19.2400 C.ar    1  LIG   0.4373   0.1600 
17    H6      -0.5947  -36.7554   18.1915 H       1  LIG   0.0280   0.1500 
18    N3       0.5220  -37.2120   19.8740 N.ar    1  LIG  -0.6893  -0.6200 
19    C10      0.7040  -36.9790   21.1800 C.ar    1  LIG   0.6480   0.4100 
20    N4       1.7670  -37.6730   21.8260 N.pl3   1  LIG  -0.6924  -0.3690 
21    C11      2.7540  -36.8570   22.5840 C.ar    1  LIG   0.5805   0.4100 
22    C12      2.9040  -34.5090   25.6010 C.3     1  LIG  -0.0620   0.1435 
23    H7       2.2235  -33.7630   25.2820 H       1  LIG   0.0570   0.0000 
24    H8       2.4436  -35.1154   26.3371 H       1  LIG   0.0495   0.0000 
25    H9       3.7654  -34.0491   26.0108 H       1  LIG   0.0519   0.0000 
26    O1      -1.2400  -35.9060   23.9770 O.2     1  LIG  -0.6361  -0.5700 
27    C13      2.3440  -38.7570   21.0360 C.3     1  LIG   0.1354   0.0690 
28    H10      3.1238  -38.3754   20.4296 H       1  LIG   0.0981   0.1000 
29    C14      2.9380  -39.8900   21.8010 C.3     1  LIG  -0.1181  -0.2000 
30    H11      3.8890  -40.1268   21.3997 H       1  LIG   0.0732   0.1000 
31    H12      3.0430  -39.6129   22.8177 H       1  LIG   0.0789   0.1000 
32    C15      1.6390  -40.0610   21.0880 C.3     1  LIG  -0.1196  -0.2000 
33    H13      0.6832  -39.9283   21.5242 H       1  LIG   0.0807   0.1000 
34    H14      1.5292  -40.4423   20.1061 H       1  LIG   0.0733   0.1000 
@<TRIPOS>BOND
1     2     1     ar
2     3     2     1
3     4     2     ar
4     5     4     1
5     6     4     ar
6     7     6     ar
7     8     7     1
8     9     8     1
9     10    8     1
10    11    10    1
11    12    11    ar
12    13    12    1
13    14    12    ar
14    15    14    1
15    16    14    ar
16    17    16    1
17    18    16    ar
18    19    11    ar
19    19    18    ar
20    20    19    1
21    21    1     ar
22    21    7     ar
23    21    20    1
24    22    6     1
25    23    22    1
26    24    22    1
27    25    22    1
28    26    10    2
29    27    20    1
30    28    27    1
31    29    27    1
32    30    29    1
33    31    29    1
34    32    27    1
35    32    29    1
36    33    32    1
37    34    32    1
@<TRIPOS>SUBSTRUCTURE
1   LIG    1    
 
########## Name        : 1VRT.lig
########## Description : AM1BCC_CHARGES =  -0.0002 ORIGINAL_CHARGES =  -0.0000

@<TRIPOS>MOLECULE
1VRT.lig
34    37    1     0     0    
SMALL
USER_CHARGES
@<TRIPOS>ATOM
1     N1       4.0540  -36.9310   22.2210 N.ar    1  LIG  -0.6650  -0.6200 
2     C1       4.9660  -36.2380   22.9390 C.ar    1  LIG   0.3947   0.1600 
3     H1       6.0082  -36.2811   22.6707 H       1  LIG   0.0281   0.1500 
4     C2       4.6240  -35.4500   24.0360 C.ar    1  LIG  -0.2334  -0.1500 
5     H2       5.3884  -34.9151   24.5740 H       1  LIG   0.1480   0.1500 
6     C3       3.3050  -35.3690   24.4150 C.ar    1  LIG  -0.0698  -0.1435 
7     C4       2.3460  -36.0770   23.6860 C.ar    1  LIG  -0.0398   0.1170 
8     N2       0.9890  -36.0280   24.1030 N.am    1  LIG  -0.4596  -0.5470 
9     H3       0.7643  -35.9928   25.0860 H       1  LIG   0.3311   0.3700 
10    C5      -0.1450  -36.0180   23.4080 C.2     1  LIG   0.7361   0.5438 
11    C6      -0.1190  -36.0770   21.8860 C.ar    1  LIG  -0.2550   0.0862 
12    C7      -1.1230  -35.3990   21.1890 C.ar    1  LIG  -0.0321  -0.1500 
13    H4      -1.7552  -34.6955   21.7041 H       1  LIG   0.1623   0.1500 
14    C8      -1.2960  -35.6300   19.8690 C.ar    1  LIG  -0.2723  -0.1500 
15    H5      -2.0662  -35.1073   19.3273 H       1  LIG   0.1522   0.1500 
16    C9      -0.4670  -36.5450   19.2400 C.ar    1  LIG   0.4373   0.1600 
17    H6      -0.5947  -36.7554   18.1915 H       1  LIG   0.0280   0.1500 
18    N3       0.5220  -37.2120   19.8740 N.ar    1  LIG  -0.6893  -0.6200 
19    C10      0.7040  -36.9790   21.1800 C.ar    1  LIG   0.6480   0.4100 
20    N4       1.7670  -37.6730   21.8260 N.pl3   1  LIG  -0.6924  -0.3690 
21    C11      2.7540  -36.8570   22.5840 C.ar    1  LIG   0.5805   0.4100 
22    C12      2.9040  -34.5090   25.6010 C.3     1  LIG  -0.0620   0.1435 
23    H7       2.2235  -33.7630   25.2820 H       1  LIG   0.0570   0.0000 
24    H8       2.4436  -35.1154   26.3371 H       1  LIG   0.0495   0.0000 
25    H9       3.7654  -34.0491   26.0108 H       1  LIG   0.0519   0.0000 
26    O1      -1.2400  -35.9060   23.9770 O.2     1  LIG  -0.6361  -0.5700 
27    C13      2.3440  -38.7570   21.0360 C.3     1  LIG   0.1354   0.0690 
28    H10      3.1238  -38.3754   20.4296 H       1  LIG   0.0981   0.1000 
29    C14      2.9380  -39.8900   21.8010 C.3     1  LIG  -0.1181  -0.2000 
30    H11      3.8890  -40.1268   21.3997 H       1  LIG   0.0732   0.1000 
31    H12      3.0430  -39.6129   22.8177 H       1  LIG   0.0789   0.1000 
32    C15      1.6390  -40.0610   21.0880 C.3     1  LIG  -0.1196  -0.2000 
33    H13      0.6832  -39.9283   21.5242 H       1  LIG   0.0807   0.1000 
34    H14      1.5292  -40.4423   20.1061 H       1  LIG   0.0733   0.1000 
@<TRIPOS>BOND
1     2     1     ar
2     3     2     1
3     4     2     ar
4     5     4     1
5     6     4     ar
6     7     6     ar
7     8     7     1
8     9     8     1
9     10    8     1
10    11    10    1
11    12    11    ar
12    13    12    1
13    14    12    ar
14    15    14    1
15    16    14    ar
16    17    16    1
17    18    16    ar
18    19    11    ar
19    19    18    ar
20    20    19    1
21    21    1     ar
22    21    7     ar
23    21    20    1
24    22    6     1
25    23    22    1
26    24    22    1
27    25    22    1
28    26    10    2
29    27    20    1
30    28    27    1
31    29    27    1
32    30    29    1
33    31    29    1
34    32    27    1
35    32    29    1
36    33    32    1
37    34    32    1
@<TRIPOS>SUBSTRUCTURE
1   LIG    1    
 
########## Name        : 1VRT.lig
########## Description : AM1BCC_CHARGES =  -0.0002 ORIGINAL_CHARGES =  -0.0000

@<TRIPOS>MOLECULE
1VRT.lig
34    37    1     0     0    
SMALL
USER_CHARGES
@<TRIPOS>ATOM
1     N1       4.0540  -36.9310   22.2210 N.ar    1  LIG  -0.6650  -0.6200 
2     C1       4.9660  -36.2380   22.9390 C.ar    1  LIG   0.3947   0.1600 
3     H1       6.0082  -36.2811   22.6707 H       1  LIG   0.0281   0.1500 
4     C2       4.6240  -35.4500   24.0360 C.ar    1  LIG  -0.2334  -0.1500 
5     H2       5.3884  -34.9151   24.5740 H       1  LIG   0.1480   0.1500 
6     C3       3.3050  -35.3690   24.4150 C.ar    1  LIG  -0.0698  -0.1435 
7     C4       2.3460  -36.0770   23.6860 C.ar    1  LIG  -0.0398   0.1170 
8     N2       0.9890  -36.0280   24.1030 N.am    1  LIG  -0.4596  -0.5470 
9     H3       0.7643  -35.9928   25.0860 H       1  LIG   0.3311   0.3700 
10    C5      -0.1450  -36.0180   23.4080 C.2     1  LIG   0.7361   0.5438 
11    C6      -0.1190  -36.0770   21.8860 C.ar    1  LIG  -0.2550   0.0862 
12    C7      -1.1230  -35.3990   21.1890 C.ar    1  LIG  -0.0321  -0.1500 
13    H4      -1.7552  -34.6955   21.7041 H       1  LIG   0.1623   0.1500 
14    C8      -1.2960  -35.6300   19.8690 C.ar    1  LIG  -0.2723  -0.1500 
15    H5      -2.0662  -35.1073   19.3273 H       1  LIG   0.1522   0.1500 
16    C9      -0.4670  -36.5450   19.2400 C.ar    1  LIG   0.4373   0.1600 
17    H6      -0.5947  -36.7554   18.1915 H       1  LIG   0.0280   0.1500 
18    N3       0.5220  -37.2120   19.8740 N.ar    1  LIG  -0.6893  -0.6200 
19    C10      0.7040  -36.9790   21.1800 C.ar    1  LIG   0.6480   0.4100 
20    N4       1.7670  -37.6730   21.8260 N.pl3   1  LIG  -0.6924  -0.3690 
21    C11      2.7540  -36.8570   22.5840 C.ar    1  LIG   0.5805   0.4100 
22    C12      2.9040  -34.5090   25.6010 C.3     1  LIG  -0.0620   0.1435 
23    H7       2.2235  -33.7630   25.2820 H       1  LIG   0.0570   0.0000 
24    H8       2.4436  -35.1154   26.3371 H       1  LIG   0.0495   0.0000 
25    H9       3.7654  -34.0491   26.0108 H       1  LIG   0.0519   0.0000 
26    O1      -1.2400  -35.9060   23.9770 O.2     1  LIG  -0.6361  -0.5700 
27    C13      2.3440  -38.7570   21.0360 C.3     1  LIG   0.1354   0.0690 
28    H10      3.1238  -38.3754   20.4296 H       1  LIG   0.0981   0.1000 
29    C14      2.9380  -39.8900   21.8010 C.3     1  LIG  -0.1181  -0.2000 
30    H11      3.8890  -40.1268   21.3997 H       1  LIG   0.0732   0.1000 
31    H12      3.0430  -39.6129   22.8177 H       1  LIG   0.0789   0.1000 
32    C15      1.6390  -40.0610   21.0880 C.3     1  LIG  -0.1196  -0.2000 
33    H13      0.6832  -39.9283   21.5242 H       1  LIG   0.0807   0.1000 
34    H14      1.5292  -40.4423   20.1061 H       1  LIG   0.0733   0.1000 
@<TRIPOS>BOND
1     2     1     ar
2     3     2     1
3     4     2     ar
4     5     4     1
5     6     4     ar
6     7     6     ar
7     8     7     1
8     9     8     1
9     10    8     1
10    11    10    1
11    12    11    ar
12    13    12    1
13    14    12    ar
14    15    14    1
15    16    14    ar
16    17    16    1
17    18    16    ar
18    19    11    ar
19    19    18    ar
20    20    19    1
21    21    1     ar
22    21    7     ar
23    21    20    1
24    22    6     1
25    23    22    1
26    24    22    1
27    25    22    1
28    26    10    2
29    27    20    1
30    28    27    1
31    29    27    1
32    30    29    1
33    31    29    1
34    32    27    1
35    32    29    1
36    33    32    1
37    34    32    1
@<TRIPOS>SUBSTRUCTURE
1   LIG    1    
 
########## Name        : 1VRT.lig
########## Description : AM1BCC_CHARGES =  -0.0002 ORIGINAL_CHARGES =  -0.0000

@<TRIPOS>MOLECULE
1VRT.lig
34    37    1     0     0    
SMALL
USER_CHARGES
@<TRIPOS>ATOM
1     N1       4.0540  -36.9310   22.2210 N.ar    1  LIG  -0.6650  -0.6200 
2     C1       4.9660  -36.2380   22.9390 C.ar    1  LIG   0.3947   0.1600 
3     H1       6.0082  -36.2811   22.6707 H       1  LIG   0.0281   0.1500 
4     C2       4.6240  -35.4500   24.0360 C.ar    1  LIG  -0.2334  -0.1500 
5     H2       5.3884  -34.9151   24.5740 H       1  LIG   0.1480   0.1500 
6     C3       3.3050  -35.3690   24.4150 C.ar    1  LIG  -0.0698  -0.1435 
7     C4       2.3460  -36.0770   23.6860 C.ar    1  LIG  -0.0398   0.1170 
8     N2       0.9890  -36.0280   24.1030 N.am    1  LIG  -0.4596  -0.5470 
9     H3       0.7643  -35.9928   25.0860 H       1  LIG   0.3311   0.3700 
10    C5      -0.1450  -36.0180   23.4080 C.2     1  LIG   0.7361   0.5438 
11    C6      -0.1190  -36.0770   21.8860 C.ar    1  LIG  -0.2550   0.0862 
12    C7      -1.1230  -35.3990   21.1890 C.ar    1  LIG  -0.0321  -0.1500 
13    H4      -1.7552  -34.6955   21.7041 H       1  LIG   0.1623   0.1500 
14    C8      -1.2960  -35.6300   19.8690 C.ar    1  LIG  -0.2723  -0.1500 
15    H5      -2.0662  -35.1073   19.3273 H       1  LIG   0.1522   0.1500 
16    C9      -0.4670  -36.5450   19.2400 C.ar    1  LIG   0.4373   0.1600 
17    H6      -0.5947  -36.7554   18.1915 H       1  LIG   0.0280   0.1500 
18    N3       0.5220  -37.2120   19.8740 N.ar    1  LIG  -0.6893  -0.6200 
19    C10      0.7040  -36.9790   21.1800 C.ar    1  LIG   0.6480   0.4100 
20    N4       1.7670  -37.6730   21.8260 N.pl3   1  LIG  -0.6924  -0.3690 
21    C11      2.7540  -36.8570   22.5840 C.ar    1  LIG   0.5805   0.4100 
22    C12      2.9040  -34.5090   25.6010 C.3     1  LIG  -0.0620   0.1435 
23    H7       2.2235  -33.7630   25.2820 H       1  LIG   0.0570   0.0000 
24    H8       2.4436  -35.1154   26.3371 H       1  LIG   0.0495   0.0000 
25    H9       3.7654  -34.0491   26.0108 H       1  LIG   0.0519   0.0000 
26    O1      -1.2400  -35.9060   23.9770 O.2     1  LIG  -0.6361  -0.5700 
27    C13      2.3440  -38.7570   21.0360 C.3     1  LIG   0.1354   0.0690 
28    H10      3.1238  -38.3754   20.4296 H       1  LIG   0.0981   0.1000 
29    C14      2.9380  -39.8900   21.8010 C.3     1  LIG  -0.1181  -0.2000 
30    H11      3.8890  -40.1268   21.3997 H       1  LIG   0.0732   0.1000 
31    H12      3.0430  -39.6129   22.8177 H       1  LIG   0.0789   0.1000 
32    C15      1.6390  -40.0610   21.0880 C.3     1  LIG  -0.1196  -0.2000 
33    H13      0.6832  -39.9283   21.5242 H       1  LIG   0.0807   0.1000 
34    H14      1.5292  -40.4423   20.1061 H       1  LIG   0.0733   0.1000 
@<TRIPOS>BOND
1     2     1     ar
2     3     2     1
3     4     2     ar
4     5     4     1
5     6     4     ar
6     7     6     ar
7     8     7     1
8     9     8     1
9     10    8     1
10    11    10    1
11    12    11    ar
12    13    12    1
13    14    12    ar
14    15    14    1
15    16    14    ar
16    17    16    1
17    18    16    ar
18    19    11    ar
19    19    18    ar
20    20    19    1
21    21    1     ar
22    21    7     ar
23    21    20    1
24    22    6     1
25    23    22    1
26    24    22    1
27    25    22    1
28    26    10    2
29    27    20    1
30    28    27    1
31    29    27    1
32    30    29    1
33    31    29    1
34    32    27    1
35    32    29    1
36    33    32    1
37    34    32    1
@<TRIPOS>SUBSTRUCTURE
1   LIG    1    
 
########## Name        : 1VRT.lig
########## Description : AM1BCC_CHARGES =  -0.0002 ORIGINAL_CHARGES =  -0.0000

@<TRIPOS>MOLECULE
1VRT.lig
34    37    1     0     0    
SMALL
USER_CHARGES
@<TRIPOS>ATOM
1     N1       4.0540  -36.9310   22.2210 N.ar    1  LIG  -0.6650  -0.6200 
2     C1       4.9660  -36.2380   22.9390 C.ar    1  LIG   0.3947   0.1600 
3     H1       6.0082  -36.2811   22.6707 H       1  LIG   0.0281   0.1500 
4     C2       4.6240  -35.4500   24.0360 C.ar    1  LIG  -0.2334  -0.1500 
5     H2       5.3884  -34.9151   24.5740 H       1  LIG   0.1480   0.1500 
6     C3       3.3050  -35.3690   24.4150 C.ar    1  LIG  -0.0698  -0.1435 
7     C4       2.3460  -36.0770   23.6860 C.ar    1  LIG  -0.0398   0.1170 
8     N2       0.9890  -36.0280   24.1030 N.am    1  LIG  -0.4596  -0.5470 
9     H3       0.7643  -35.9928   25.0860 H       1  LIG   0.3311   0.3700 
10    C5      -0.1450  -36.0180   23.4080 C.2     1  LIG   0.7361   0.5438 
11    C6      -0.1190  -36.0770   21.8860 C.ar    1  LIG  -0.2550   0.0862 
12    C7      -1.1230  -35.3990   21.1890 C.ar    1  LIG  -0.0321  -0.1500 
13    H4      -1.7552  -34.6955   21.7041 H       1  LIG   0.1623   0.1500 
14    C8      -1.2960  -35.6300   19.8690 C.ar    1  LIG  -0.2723  -0.1500 
15    H5      -2.0662  -35.1073   19.3273 H       1  LIG   0.1522   0.1500 
16    C9      -0.4670  -36.5450   19.2400 C.ar    1  LIG   0.4373   0.1600 
17    H6      -0.5947  -36.7554   18.1915 H       1  LIG   0.0280   0.1500 
18    N3       0.5220  -37.2120   19.8740 N.ar    1  LIG  -0.6893  -0.6200 
19    C10      0.7040  -36.9790   21.1800 C.ar    1  LIG   0.6480   0.4100 
20    N4       1.7670  -37.6730   21.8260 N.pl3   1  LIG  -0.6924  -0.3690 
21    C11      2.7540  -36.8570   22.5840 C.ar    1  LIG   0.5805   0.4100 
22    C12      2.9040  -34.5090   25.6010 C.3     1  LIG  -0.0620   0.1435 
23    H7       2.2235  -33.7630   25.2820 H       1  LIG   0.0570   0.0000 
24    H8       2.4436  -35.1154   26.3371 H       1  LIG   0.0495   0.0000 
25    H9       3.7654  -34.0491   26.0108 H       1  LIG   0.0519   0.0000 
26    O1      -1.2400  -35.9060   23.9770 O.2     1  LIG  -0.6361  -0.5700 
27    C13      2.3440  -38.7570   21.0360 C.3     1  LIG   0.1354   0.0690 
28    H10      3.1238  -38.3754   20.4296 H       1  LIG   0.0981   0.1000 
29    C14      2.9380  -39.8900   21.8010 C.3     1  LIG  -0.1181  -0.2000 
30    H11      3.8890  -40.1268   21.3997 H       1  LIG   0.0732   0.1000 
31    H12      3.0430  -39.6129   22.8177 H       1  LIG   0.0789   0.1000 
32    C15      1.6390  -40.0610   21.0880 C.3     1  LIG  -0.1196  -0.2000 
33    H13      0.6832  -39.9283   21.5242 H       1  LIG   0.0807   0.1000 
34    H14      1.5292  -40.4423   20.1061 H       1  LIG   0.0733   0.1000 
@<TRIPOS>BOND
1     2     1     ar
2     3     2     1
3     4     2     ar
4     5     4     1
5     6     4     ar
6     7     6     ar
7     8     7     1
8     9     8     1
9     10    8     1
10    11    10    1
11    12    11    ar
12    13    12    1
13    14    12    ar
14    15    14    1
15    16    14    ar
16    17    16    1
17    18    16    ar
18    19    11    ar
19    19    18    ar
20    20    19    1
21    21    1     ar
22    21    7     ar
23    21    20    1
24    22    6     1
25    23    22    1
26    24    22    1
27    25    22    1
28    26    10    2
29    27    20    1
30    28    27    1
31    29    27    1
32    30    29    1
33    31    29    1
34    32    27    1
35    32    29    1
36    33    32    1
37    34    32    1
@<TRIPOS>SUBSTRUCTURE
1   LIG    1    
 
########## Name        : 1VRT.lig
########## Description : AM1BCC_CHARGES =  -0.0002 ORIGINAL_CHARGES =  -0.0000

@<TRIPOS>MOLECULE
1VRT.lig
34    37    1     0     0    
SMALL
USER_CHARGES
@<TRIPOS>ATOM
1     N1       4.0540  -36.9310   22.2210 N.ar    1  LIG  -0.6650  -0.6200 
2     C1       4.9660  -36.2380   22.9390 C.ar    1  LIG   0.3947   0.1600 
3     H1       6.0082  -36.2811   22.6707 H       1  LIG   0.0281   0.1500 
4     C2       4.6240  -35.4500   24.0360 C.ar    1  LIG  -0.2334  -0.1500 
5     H2       5.3884  -34.9151   24.5740 H       1  LIG   0.1480   0.1500 
6     C3       3.3050  -35.3690   24.4150 C.ar    1  LIG  -0.0698  -0.1435 
7     C4       2.3460  -36.0770   23.6860 C.ar    1  LIG  -0.0398   0.1170 
8     N2       0.9890  -36.0280   24.1030 N.am    1  LIG  -0.4596  -0.5470 
9     H3       0.7643  -35.9928   25.0860 H       1  LIG   0.3311   0.3700 
10    C5      -0.1450  -36.0180   23.4080 C.2     1  LIG   0.7361   0.5438 
11    C6      -0.1190  -36.0770   21.8860 C.ar    1  LIG  -0.2550   0.0862 
12    C7      -1.1230  -35.3990   21.1890 C.ar    1  LIG  -0.0321  -0.1500 
13    H4      -1.7552  -34.6955   21.7041 H       1  LIG   0.1623   0.1500 
14    C8      -1.2960  -35.6300   19.8690 C.ar    1  LIG  -0.2723  -0.1500 
15    H5      -2.0662  -35.1073   19.3273 H       1  LIG   0.1522   0.1500 
16    C9      -0.4670  -36.5450   19.2400 C.ar    1  LIG   0.4373   0.1600 
17    H6      -0.5947  -36.7554   18.1915 H       1  LIG   0.0280   0.1500 
18    N3       0.5220  -37.2120   19.8740 N.ar    1  LIG  -0.6893  -0.6200 
19    C10      0.7040  -36.9790   21.1800 C.ar    1  LIG   0.6480   0.4100 
20    N4       1.7670  -37.6730   21.8260 N.pl3   1  LIG  -0.6924  -0.3690 
21    C11      2.7540  -36.8570   22.5840 C.ar    1  LIG   0.5805   0.4100 
22    C12      2.9040  -34.5090   25.6010 C.3     1  LIG  -0.0620   0.1435 
23    H7       2.2235  -33.7630   25.2820 H       1  LIG   0.0570   0.0000 
24    H8       2.4436  -35.1154   26.3371 H       1  LIG   0.0495   0.0000 
25    H9       3.7654  -34.0491   26.0108 H       1  LIG   0.0519   0.0000 
26    O1      -1.2400  -35.9060   23.9770 O.2     1  LIG  -0.6361  -0.5700 
27    C13      2.3440  -38.7570   21.0360 C.3     1  LIG   0.1354   0.0690 
28    H10      3.1238  -38.3754   20.4296 H       1  LIG   0.0981   0.1000 
29    C14      2.9380  -39.8900   21.8010 C.3     1  LIG  -0.1181  -0.2000 
30    H11      3.8890  -40.1268   21.3997 H       1  LIG   0.0732   0.1000 
31    H12      3.0430  -39.6129   22.8177 H       1  LIG   0.0789   0.1000 
32    C15      1.6390  -40.0610   21.0880 C.3     1  LIG  -0.1196  -0.2000 
33    H13      0.6832  -39.9283   21.5242 H       1  LIG   0.0807   0.1000 
34    H14      1.5292  -40.4423   20.1061 H       1  LIG   0.0733   0.1000 
@<TRIPOS>BOND
1     2     1     ar
2     3     2     1
3     4     2     ar
4     5     4     1
5     6     4     ar
6     7     6     ar
7     8     7     1
8     9     8     1
9     10    8     1
10    11    10    1
11    12    11    ar
12    13    12    1
13    14    12    ar
14    15    14    1
15    16    14    ar
16    17    16    1
17    18    16    ar
18    19    11    ar
19    19    18    ar
20    20    19    1
21    21    1     ar
22    21    7     ar
23    21    20    1
24    22    6     1
25    23    22    1
26    24    22    1
27    25    22    1
28    26    10    2
29    27    20    1
30    28    27    1
31    29    27    1
32    30    29    1
33    31    29    1
34    32    27    1
35    32    29    1
36    33    32    1
37    34    32    1
@<TRIPOS>SUBSTRUCTURE
1   LIG    1    
 
########## Name        : 1VRT.lig
########## Description : AM1BCC_CHARGES =  -0.0002 ORIGINAL_CHARGES =  -0.0000

@<TRIPOS>MOLECULE
1VRT.lig
34    37    1     0     0    
SMALL
USER_CHARGES
@<TRIPOS>ATOM
1     N1       4.0540  -36.9310   22.2210 N.ar    1  LIG  -0.6650  -0.6200 
2     C1       4.9660  -36.2380   22.9390 C.ar    1  LIG   0.3947   0.1600 
3     H1       6.0082  -36.2811   22.6707 H       1  LIG   0.0281   0.1500 
4     C2       4.6240  -35.4500   24.0360 C.ar    1  LIG  -0.2334  -0.1500 
5     H2       5.3884  -34.9151   24.5740 H       1  LIG   0.1480   0.1500 
6     C3       3.3050  -35.3690   24.4150 C.ar    1  LIG  -0.0698  -0.1435 
7     C4       2.3460  -36.0770   23.6860 C.ar    1  LIG  -0.0398   0.1170 
8     N2       0.9890  -36.0280   24.1030 N.am    1  LIG  -0.4596  -0.5470 
9     H3       0.7643  -35.9928   25.0860 H       1  LIG   0.3311   0.3700 
10    C5      -0.1450  -36.0180   23.4080 C.2     1  LIG   0.7361   0.5438 
11    C6      -0.1190  -36.0770   21.8860 C.ar    1  LIG  -0.2550   0.0862 
12    C7      -1.1230  -35.3990   21.1890 C.ar    1  LIG  -0.0321  -0.1500 
13    H4      -1.7552  -34.6955   21.7041 H       1  LIG   0.1623   0.1500 
14    C8      -1.2960  -35.6300   19.8690 C.ar    1  LIG  -0.2723  -0.1500 
15    H5      -2.0662  -35.1073   19.3273 H       1  LIG   0.1522   0.1500 
16    C9      -0.4670  -36.5450   19.2400 C.ar    1  LIG   0.4373   0.1600 
17    H6      -0.5947  -36.7554   18.1915 H       1  LIG   0.0280   0.1500 
18    N3       0.5220  -37.2120   19.8740 N.ar    1  LIG  -0.6893  -0.6200 
19    C10      0.7040  -36.9790   21.1800 C.ar    1  LIG   0.6480   0.4100 
20    N4       1.7670  -37.6730   21.8260 N.pl3   1  LIG  -0.6924  -0.3690 
21    C11      2.7540  -36.8570   22.5840 C.ar    1  LIG   0.5805   0.4100 
22    C12      2.9040  -34.5090   25.6010 C.3     1  LIG  -0.0620   0.1435 
23    H7       2.2235  -33.7630   25.2820 H       1  LIG   0.0570   0.0000 
24    H8       2.4436  -35.1154   26.3371 H       1  LIG   0.0495   0.0000 
25    H9       3.7654  -34.0491   26.0108 H       1  LIG   0.0519   0.0000 
26    O1      -1.2400  -35.9060   23.9770 O.2     1  LIG  -0.6361  -0.5700 
27    C13      2.3440  -38.7570   21.0360 C.3     1  LIG   0.1354   0.0690 
28    H10      3.1238  -38.3754   20.4296 H       1  LIG   0.0981   0.1000 
29    C14      2.9380  -39.8900   21.8010 C.3     1  LIG  -0.1181  -0.2000 
30    H11      3.8890  -40.1268   21.3997 H       1  LIG   0.0732   0.1000 
31    H12      3.0430  -39.6129   22.8177 H       1  LIG   0.0789   0.1000 
32    C15      1.6390  -40.0610   21.0880 C.3     1  LIG  -0.1196  -0.2000 
33    H13      0.6832  -39.9283   21.5242 H       1  LIG   0.0807   0.1000 
34    H14      1.5292  -40.4423   20.1061 H       1  LIG   0.0733   0.1000 
@<TRIPOS>BOND
1     2     1     ar
2     3     2     1
3     4     2     ar
4     5     4     1
5     6     4     ar
6     7     6     ar
7     8     7     1
8     9     8     1
9     10    8     1
10    11    10    1
11    12    11    ar
12    13    12    1
13    14    12    ar
14    15    14    1
15    16    14    ar
16    17    16    1
17    18    16    ar
18    19    11    ar
19    19    18    ar
20    20    19    1
21    21    1     ar
22    21    7     ar
23    21    20    1
24    22    6     1
25    23    22    1
26    24    22    1
27    25    22    1
28    26    10    2
29    27    20    1
30    28    27    1
31    29    27    1
32    30    29    1
33    31    29    1
34    32    27    1
35    32    29    1
36    33    32    1
37    34    32    1
@<TRIPOS>SUBSTRUCTURE
1   LIG    1    
 
########## Name        : 1VRT.lig
########## Description : AM1BCC_CHARGES =  -0.0002 ORIGINAL_CHARGES =  -0.0000

@<TRIPOS>MOLECULE
1VRT.lig
34    37    1     0     0    
SMALL
USER_CHARGES
@<TRIPOS>ATOM
1     N1       4.0540  -36.9310   22.2210 N.ar    1  LIG  -0.6650  -0.6200 
2     C1       4.9660  -36.2380   22.9390 C.ar    1  LIG   0.3947   0.1600 
3     H1       6.0082  -36.2811   22.6707 H       1  LIG   0.0281   0.1500 
4     C2       4.6240  -35.4500   24.0360 C.ar    1  LIG  -0.2334  -0.1500 
5     H2       5.3884  -34.9151   24.5740 H       1  LIG   0.1480   0.1500 
6     C3       3.3050  -35.3690   24.4150 C.ar    1  LIG  -0.0698  -0.1435 
7     C4       2.3460  -36.0770   23.6860 C.ar    1  LIG  -0.0398   0.1170 
8     N2       0.9890  -36.0280   24.1030 N.am    1  LIG  -0.4596  -0.5470 
9     H3       0.7643  -35.9928   25.0860 H       1  LIG   0.3311   0.3700 
10    C5      -0.1450  -36.0180   23.4080 C.2     1  LIG   0.7361   0.5438 
11    C6      -0.1190  -36.0770   21.8860 C.ar    1  LIG  -0.2550   0.0862 
12    C7      -1.1230  -35.3990   21.1890 C.ar    1  LIG  -0.0321  -0.1500 
13    H4      -1.7552  -34.6955   21.7041 H       1  LIG   0.1623   0.1500 
14    C8      -1.2960  -35.6300   19.8690 C.ar    1  LIG  -0.2723  -0.1500 
15    H5      -2.0662  -35.1073   19.3273 H       1  LIG   0.1522   0.1500 
16    C9      -0.4670  -36.5450   19.2400 C.ar    1  LIG   0.4373   0.1600 
17    H6      -0.5947  -36.7554   18.1915 H       1  LIG   0.0280   0.1500 
18    N3       0.5220  -37.2120   19.8740 N.ar    1  LIG  -0.6893  -0.6200 
19    C10      0.7040  -36.9790   21.1800 C.ar    1  LIG   0.6480   0.4100 
20    N4       1.7670  -37.6730   21.8260 N.pl3   1  LIG  -0.6924  -0.3690 
21    C11      2.7540  -36.8570   22.5840 C.ar    1  LIG   0.5805   0.4100 
22    C12      2.9040  -34.5090   25.6010 C.3     1  LIG  -0.0620   0.1435 
23    H7       2.2235  -33.7630   25.2820 H       1  LIG   0.0570   0.0000 
24    H8       2.4436  -35.1154   26.3371 H       1  LIG   0.0495   0.0000 
25    H9       3.7654  -34.0491   26.0108 H       1  LIG   0.0519   0.0000 
26    O1      -1.2400  -35.9060   23.9770 O.2     1  LIG  -0.6361  -0.5700 
27    C13      2.3440  -38.7570   21.0360 C.3     1  LIG   0.1354   0.0690 
28    H10      3.1238  -38.3754   20.4296 H       1  LIG   0.0981   0.1000 
29    C14      2.9380  -39.8900   21.8010 C.3     1  LIG  -0.1181  -0.2000 
30    H11      3.8890  -40.1268   21.3997 H       1  LIG   0.0732   0.1000 
31    H12      3.0430  -39.6129   22.8177 H       1  LIG   0.0789   0.1000 
32    C15      1.6390  -40.0610   21.0880 C.3     1  LIG  -0.1196  -0.2000 
33    H13      0.6832  -39.9283   21.5242 H       1  LIG   0.0807   0.1000 
34    H14      1.5292  -40.4423   20.1061 H       1  LIG   0.0733   0.1000 
@<TRIPOS>BOND
1     2     1     ar
2     3     2     1
3     4     2     ar
4     5     4     1
5     6     4     ar
6     7     6     ar
7     8     7     1
8     9     8     1
9     10    8     1
10    11    10    1
11    12    11    ar
12    13    12    1
13    14    12    ar
14    15    14    1
15    16    14    ar
16    17    16    1
17    18    16    ar
18    19    11    ar
19    19    18    ar
20    20    19    1
21    21    1     ar
22    21    7     ar
23    21    20    1
24    22    6     1
25    23    22    1
26    24    22    1
27    25    22    1
28    26    10    2
29    27    20    1
30    28    27    1
31    29    27    1
32    30    29    1
33    31    29    1
34    32    27    1
35    32    29    1
36    33    32    1
37    34    32    1
@<TRIPOS>SUBSTRUCTURE
1   LIG    1    
 
########## Name        : 1VRT.lig
########## Description : AM1BCC_CHARGES =  -0.0002 ORIGINAL_CHARGES =  -0.0000

@<TRIPOS>MOLECULE
1VRT.lig
34    37    1     0     0    
SMALL
USER_CHARGES
@<TRIPOS>ATOM
1     N1       4.0540  -36.9310   22.2210 N.ar    1  LIG  -0.6650  -0.6200 
2     C1       4.9660  -36.2380   22.9390 C.ar    1  LIG   0.3947   0.1600 
3     H1       6.0082  -36.2811   22.6707 H       1  LIG   0.0281   0.1500 
4     C2       4.6240  -35.4500   24.0360 C.ar    1  LIG  -0.2334  -0.1500 
5     H2       5.3884  -34.9151   24.5740 H       1  LIG   0.1480   0.1500 
6     C3       3.3050  -35.3690   24.4150 C.ar    1  LIG  -0.0698  -0.1435 
7     C4       2.3460  -36.0770   23.6860 C.ar    1  LIG  -0.0398   0.1170 
8     N2       0.9890  -36.0280   24.1030 N.am    1  LIG  -0.4596  -0.5470 
9     H3       0.7643  -35.9928   25.0860 H       1  LIG   0.3311   0.3700 
10    C5      -0.1450  -36.0180   23.4080 C.2     1  LIG   0.7361   0.5438 
11    C6      -0.1190  -36.0770   21.8860 C.ar    1  LIG  -0.2550   0.0862 
12    C7      -1.1230  -35.3990   21.1890 C.ar    1  LIG  -0.0321  -0.1500 
13    H4      -1.7552  -34.6955   21.7041 H       1  LIG   0.1623   0.1500 
14    C8      -1.2960  -35.6300   19.8690 C.ar    1  LIG  -0.2723  -0.1500 
15    H5      -2.0662  -35.1073   19.3273 H       1  LIG   0.1522   0.1500 
16    C9      -0.4670  -36.5450   19.2400 C.ar    1  LIG   0.4373   0.1600 
17    H6      -0.5947  -36.7554   18.1915 H       1  LIG   0.0280   0.1500 
18    N3       0.5220  -37.2120   19.8740 N.ar    1  LIG  -0.6893  -0.6200 
19    C10      0.7040  -36.9790   21.1800 C.ar    1  LIG   0.6480   0.4100 
20    N4       1.7670  -37.6730   21.8260 N.pl3   1  LIG  -0.6924  -0.3690 
21    C11      2.7540  -36.8570   22.5840 C.ar    1  LIG   0.5805   0.4100 
22    C12      2.9040  -34.5090   25.6010 C.3     1  LIG  -0.0620   0.1435 
23    H7       2.2235  -33.7630   25.2820 H       1  LIG   0.0570   0.0000 
24    H8       2.4436  -35.1154   26.3371 H       1  LIG   0.0495   0.0000 
25    H9       3.7654  -34.0491   26.0108 H       1  LIG   0.0519   0.0000 
26    O1      -1.2400  -35.9060   23.9770 O.2     1  LIG  -0.6361  -0.5700 
27    C13      2.3440  -38.7570   21.0360 C.3     1  LIG   0.1354   0.0690 
28    H10      3.1238  -38.3754   20.4296 H       1  LIG   0.0981   0.1000 
29    C14      2.9380  -39.8900   21.8010 C.3     1  LIG  -0.1181  -0.2000 
30    H11      3.8890  -40.1268   21.3997 H       1  LIG   0.0732   0.1000 
31    H12      3.0430  -39.6129   22.8177 H       1  LIG   0.0789   0.1000 
32    C15      1.6390  -40.0610   21.0880 C.3     1  LIG  -0.1196  -0.2000 
33    H13      0.6832  -39.9283   21.5242 H       1  LIG   0.0807   0.1000 
34    H14      1.5292  -40.4423   20.1061 H       1  LIG   0.0733   0.1000 
@<TRIPOS>BOND
1     2     1     ar
2     3     2     1
3     4     2     ar
4     5     4     1
5     6     4     ar
6     7     6     ar
7     8     7     1
8     9     8     1
9     10    8     1
10    11    10    1
11    12    11    ar
12    13    12    1
13    14    12    ar
14    15    14    1
15    16    14    ar
16    17    16    1
17    18    16    ar
18    19    11    ar
19    19    18    ar
20    20    19    1
21    21    1     ar
22    21    7     ar
23    21    20    1
24    22    6     1
25    23    22    1
26    24    22    1
27    25    22    1
28    26    10    2
29    27    20    1
30    28    27    1
31    29    27    1
32    30    29    1
33    31    29    1
34    32    27    1
35    32    29    1
36    33    32    1
37    34    32    1
@<TRIPOS>SUBSTRUCTURE
1   LIG    1    
 
########## Name        : 1VRT.lig
########## Description : AM1BCC_CHARGES =  -0.0002 ORIGINAL_CHARGES =  -0.0000

@<TRIPOS>MOLECULE
1VRT.lig
34    37    1     0     0    
SMALL
USER_CHARGES
@<TRIPOS>ATOM
1     N1       4.0540  -36.9310   22.2210 N.ar    1  LIG  -0.6650  -0.6200 
2     C1       4.9660  -36.2380   22.9390 C.ar    1  LIG   0.3947   0.1600 
3     H1       6.0082  -36.2811   22.6707 H       1  LIG   0.0281   0.1500 
4     C2       4.6240  -35.4500   24.0360 C.ar    1  LIG  -0.2334  -0.1500 
5     H2       5.3884  -34.9151   24.5740 H       1  LIG   0.1480   0.1500 
6     C3       3.3050  -35.3690   24.4150 C.ar    1  LIG  -0.0698  -0.1435 
7     C4       2.3460  -36.0770   23.6860 C.ar    1  LIG  -0.0398   0.1170 
8     N2       0.9890  -36.0280   24.1030 N.am    1  LIG  -0.4596  -0.5470 
9     H3       0.7643  -35.9928   25.0860 H       1  LIG   0.3311   0.3700 
10    C5      -0.1450  -36.0180   23.4080 C.2     1  LIG   0.7361   0.5438 
11    C6      -0.1190  -36.0770   21.8860 C.ar    1  LIG  -0.2550   0.0862 
12    C7      -1.1230  -35.3990   21.1890 C.ar    1  LIG  -0.0321  -0.1500 
13    H4      -1.7552  -34.6955   21.7041 H       1  LIG   0.1623   0.1500 
14    C8      -1.2960  -35.6300   19.8690 C.ar    1  LIG  -0.2723  -0.1500 
15    H5      -2.0662  -35.1073   19.3273 H       1  LIG   0.1522   0.1500 
16    C9      -0.4670  -36.5450   19.2400 C.ar    1  LIG   0.4373   0.1600 
17    H6      -0.5947  -36.7554   18.1915 H       1  LIG   0.0280   0.1500 
18    N3       0.5220  -37.2120   19.8740 N.ar    1  LIG  -0.6893  -0.6200 
19    C10      0.7040  -36.9790   21.1800 C.ar    1  LIG   0.6480   0.4100 
20    N4       1.7670  -37.6730   21.8260 N.pl3   1  LIG  -0.6924  -0.3690 
21    C11      2.7540  -36.8570   22.5840 C.ar    1  LIG   0.5805   0.4100 
22    C12      2.9040  -34.5090   25.6010 C.3     1  LIG  -0.0620   0.1435 
23    H7       2.2235  -33.7630   25.2820 H       1  LIG   0.0570   0.0000 
24    H8       2.4436  -35.1154   26.3371 H       1  LIG   0.0495   0.0000 
25    H9       3.7654  -34.0491   26.0108 H       1  LIG   0.0519   0.0000 
26    O1      -1.2400  -35.9060   23.9770 O.2     1  LIG  -0.6361  -0.5700 
27    C13      2.3440  -38.7570   21.0360 C.3     1  LIG   0.1354   0.0690 
28    H10      3.1238  -38.3754   20.4296 H       1  LIG   0.0981   0.1000 
29    C14      2.9380  -39.8900   21.8010 C.3     1  LIG  -0.1181  -0.2000 
30    H11      3.8890  -40.1268   21.3997 H       1  LIG   0.0732   0.1000 
31    H12      3.0430  -39.6129   22.8177 H       1  LIG   0.0789   0.1000 
32    C15      1.6390  -40.0610   21.0880 C.3     1  LIG  -0.1196  -0.2000 
33    H13      0.6832  -39.9283   21.5242 H       1  LIG   0.0807   0.1000 
34    H14      1.5292  -40.4423   20.1061 H       1  LIG   0.0733   0.1000 
@<TRIPOS>BOND
1     2     1     ar
2     3     2     1
3     4     2     ar
4     5     4     1
5     6     4     ar
6     7     6     ar
7     8     7     1
8     9     8     1
9     10    8     1
10    11    10    1
11    12    11    ar
12    13    12    1
13    14    12    ar
14    15    14    1
15    16    14    ar
16    17    16    1
17    18    16    ar
18    19    11    ar
19    19    18    ar
20    20    19    1
21    21    1     ar
22    21    7     ar
23    21    20    1
24    22    6     1
25    23    22    1
26    24    22    1
27    25    22    1
28    26    10    2
29    27    20    1
30    28    27    1
31    29    27    1
32    30    29    1
33    31    29    1
34    32    27    1
35    32    29    1
36    33    32    1
37    34    32    1
@<TRIPOS>SUBSTRUCTURE
1   LIG    1    
 
########## Name        : 1VRT.lig
########## Description : AM1BCC_CHARGES =  -0.0002 ORIGINAL_CHARGES =  -0.0000

@<TRIPOS>MOLECULE
1VRT.lig
34    37    1     0     0    
SMALL
USER_CHARGES
@<TRIPOS>ATOM
1     N1       4.0540  -36.9310   22.2210 N.ar    1  LIG  -0.6650  -0.6200 
2     C1       4.9660  -36.2380   22.9390 C.ar    1  LIG   0.3947   0.1600 
3     H1       6.0082  -36.2811   22.6707 H       1  LIG   0.0281   0.1500 
4     C2       4.6240  -35.4500   24.0360 C.ar    1  LIG  -0.2334  -0.1500 
5     H2       5.3884  -34.9151   24.5740 H       1  LIG   0.1480   0.1500 
6     C3       3.3050  -35.3690   24.4150 C.ar    1  LIG  -0.0698  -0.1435 
7     C4       2.3460  -36.0770   23.6860 C.ar    1  LIG  -0.0398   0.1170 
8     N2       0.9890  -36.0280   24.1030 N.am    1  LIG  -0.4596  -0.5470 
9     H3       0.7643  -35.9928   25.0860 H       1  LIG   0.3311   0.3700 
10    C5      -0.1450  -36.0180   23.4080 C.2     1  LIG   0.7361   0.5438 
11    C6      -0.1190  -36.0770   21.8860 C.ar    1  LIG  -0.2550   0.0862 
12    C7      -1.1230  -35.3990   21.1890 C.ar    1  LIG  -0.0321  -0.1500 
13    H4      -1.7552  -34.6955   21.7041 H       1  LIG   0.1623   0.1500 
14    C8      -1.2960  -35.6300   19.8690 C.ar    1  LIG  -0.2723  -0.1500 
15    H5      -2.0662  -35.1073   19.3273 H       1  LIG   0.1522   0.1500 
16    C9      -0.4670  -36.5450   19.2400 C.ar    1  LIG   0.4373   0.1600 
17    H6      -0.5947  -36.7554   18.1915 H       1  LIG   0.0280   0.1500 
18    N3       0.5220  -37.2120   19.8740 N.ar    1  LIG  -0.6893  -0.6200 
19    C10      0.7040  -36.9790   21.1800 C.ar    1  LIG   0.6480   0.4100 
20    N4       1.7670  -37.6730   21.8260 N.pl3   1  LIG  -0.6924  -0.3690 
21    C11      2.7540  -36.8570   22.5840 C.ar    1  LIG   0.5805   0.4100 
22    C12      2.9040  -34.5090   25.6010 C.3     1  LIG  -0.0620   0.1435 
23    H7       2.2235  -33.7630   25.2820 H       1  LIG   0.0570   0.0000 
24    H8       2.4436  -35.1154   26.3371 H       1  LIG   0.0495   0.0000 
25    H9       3.7654  -34.0491   26.0108 H       1  LIG   0.0519   0.0000 
26    O1      -1.2400  -35.9060   23.9770 O.2     1  LIG  -0.6361  -0.5700 
27    C13      2.3440  -38.7570   21.0360 C.3     1  LIG   0.1354   0.0690 
28    H10      3.1238  -38.3754   20.4296 H       1  LIG   0.0981   0.1000 
29    C14      2.9380  -39.8900   21.8010 C.3     1  LIG  -0.1181  -0.2000 
30    H11      3.8890  -40.1268   21.3997 H       1  LIG   0.0732   0.1000 
31    H12      3.0430  -39.6129   22.8177 H       1  LIG   0.0789   0.1000 
32    C15      1.6390  -40.0610   21.0880 C.3     1  LIG  -0.1196  -0.2000 
33    H13      0.6832  -39.9283   21.5242 H       1  LIG   0.0807   0.1000 
34    H14      1.5292  -40.4423   20.1061 H       1  LIG   0.0733   0.1000 
@<TRIPOS>BOND
1     2     1     ar
2     3     2     1
3     4     2     ar
4     5     4     1
5     6     4     ar
6     7     6     ar
7     8     7     1
8     9     8     1
9     10    8     1
10    11    10    1
11    12    11    ar
12    13    12    1
13    14    12    ar
14    15    14    1
15    16    14    ar
16    17    16    1
17    18    16    ar
18    19    11    ar
19    19    18    ar
20    20    19    1
21    21    1     ar
22    21    7     ar
23    21    20    1
24    22    6     1
25    23    22    1
26    24    22    1
27    25    22    1
28    26    10    2
29    27    20    1
30    28    27    1
31    29    27    1
32    30    29    1
33    31    29    1
34    32    27    1
35    32    29    1
36    33    32    1
37    34    32    1
@<TRIPOS>SUBSTRUCTURE
1   LIG    1    
 
########## Name        : 1VRT.lig
########## Description : AM1BCC_CHARGES =  -0.0002 ORIGINAL_CHARGES =  -0.0000

@<TRIPOS>MOLECULE
1VRT.lig
34    37    1     0     0    
SMALL
USER_CHARGES
@<TRIPOS>ATOM
1     N1       4.0540  -36.9310   22.2210 N.ar    1  LIG  -0.6650  -0.6200 
2     C1       4.9660  -36.2380   22.9390 C.ar    1  LIG   0.3947   0.1600 
3     H1       6.0082  -36.2811   22.6707 H       1  LIG   0.0281   0.1500 
4     C2       4.6240  -35.4500   24.0360 C.ar    1  LIG  -0.2334  -0.1500 
5     H2       5.3884  -34.9151   24.5740 H       1  LIG   0.1480   0.1500 
6     C3       3.3050  -35.3690   24.4150 C.ar    1  LIG  -0.0698  -0.1435 
7     C4       2.3460  -36.0770   23.6860 C.ar    1  LIG  -0.0398   0.1170 
8     N2       0.9890  -36.0280   24.1030 N.am    1  LIG  -0.4596  -0.5470 
9     H3       0.7643  -35.9928   25.0860 H       1  LIG   0.3311   0.3700 
10    C5      -0.1450  -36.0180   23.4080 C.2     1  LIG   0.7361   0.5438 
11    C6      -0.1190  -36.0770   21.8860 C.ar    1  LIG  -0.2550   0.0862 
12    C7      -1.1230  -35.3990   21.1890 C.ar    1  LIG  -0.0321  -0.1500 
13    H4      -1.7552  -34.6955   21.7041 H       1  LIG   0.1623   0.1500 
14    C8      -1.2960  -35.6300   19.8690 C.ar    1  LIG  -0.2723  -0.1500 
15    H5      -2.0662  -35.1073   19.3273 H       1  LIG   0.1522   0.1500 
16    C9      -0.4670  -36.5450   19.2400 C.ar    1  LIG   0.4373   0.1600 
17    H6      -0.5947  -36.7554   18.1915 H       1  LIG   0.0280   0.1500 
18    N3       0.5220  -37.2120   19.8740 N.ar    1  LIG  -0.6893  -0.6200 
19    C10      0.7040  -36.9790   21.1800 C.ar    1  LIG   0.6480   0.4100 
20    N4       1.7670  -37.6730   21.8260 N.pl3   1  LIG  -0.6924  -0.3690 
21    C11      2.7540  -36.8570   22.5840 C.ar    1  LIG   0.5805   0.4100 
22    C12      2.9040  -34.5090   25.6010 C.3     1  LIG  -0.0620   0.1435 
23    H7       2.2235  -33.7630   25.2820 H       1  LIG   0.0570   0.0000 
24    H8       2.4436  -35.1154   26.3371 H       1  LIG   0.0495   0.0000 
25    H9       3.7654  -34.0491   26.0108 H       1  LIG   0.0519   0.0000 
26    O1      -1.2400  -35.9060   23.9770 O.2     1  LIG  -0.6361  -0.5700 
27    C13      2.3440  -38.7570   21.0360 C.3     1  LIG   0.1354   0.0690 
28    H10      3.1238  -38.3754   20.4296 H       1  LIG   0.0981   0.1000 
29    C14      2.9380  -39.8900   21.8010 C.3     1  LIG  -0.1181  -0.2000 
30    H11      3.8890  -40.1268   21.3997 H       1  LIG   0.0732   0.1000 
31    H12      3.0430  -39.6129   22.8177 H       1  LIG   0.0789   0.1000 
32    C15      1.6390  -40.0610   21.0880 C.3     1  LIG  -0.1196  -0.2000 
33    H13      0.6832  -39.9283   21.5242 H       1  LIG   0.0807   0.1000 
34    H14      1.5292  -40.4423   20.1061 H       1  LIG   0.0733   0.1000 
@<TRIPOS>BOND
1     2     1     ar
2     3     2     1
3     4     2     ar
4     5     4     1
5     6     4     ar
6     7     6     ar
7     8     7     1
8     9     8     1
9     10    8     1
10    11    10    1
11    12    11    ar
12    13    12    1
13    14    12    ar
14    15    14    1
15    16    14    ar
16    17    16    1
17    18    16    ar
18    19    11    ar
19    19    18    ar
20    20    19    1
21    21    1     ar
22    21    7     ar
23    21    20    1
24    22    6     1
25    23    22    1
26    24    22    1
27    25    22    1
28    26    10    2
29    27    20    1
30    28    27    1
31    29    27    1
32    30    29    1
33    31    29    1
34    32    27    1
35    32    29    1
36    33    32    1
37    34    32    1
@<TRIPOS>SUBSTRUCTURE
1   LIG    1    
 
########## Name        : 1VRT.lig
########## Description : AM1BCC_CHARGES =  -0.0002 ORIGINAL_CHARGES =  -0.0000

@<TRIPOS>MOLECULE
1VRT.lig
34    37    1     0     0    
SMALL
USER_CHARGES
@<TRIPOS>ATOM
1     N1       4.0540  -36.9310   22.2210 N.ar    1  LIG  -0.6650  -0.6200 
2     C1       4.9660  -36.2380   22.9390 C.ar    1  LIG   0.3947   0.1600 
3     H1       6.0082  -36.2811   22.6707 H       1  LIG   0.0281   0.1500 
4     C2       4.6240  -35.4500   24.0360 C.ar    1  LIG  -0.2334  -0.1500 
5     H2       5.3884  -34.9151   24.5740 H       1  LIG   0.1480   0.1500 
6     C3       3.3050  -35.3690   24.4150 C.ar    1  LIG  -0.0698  -0.1435 
7     C4       2.3460  -36.0770   23.6860 C.ar    1  LIG  -0.0398   0.1170 
8     N2       0.9890  -36.0280   24.1030 N.am    1  LIG  -0.4596  -0.5470 
9     H3       0.7643  -35.9928   25.0860 H       1  LIG   0.3311   0.3700 
10    C5      -0.1450  -36.0180   23.4080 C.2     1  LIG   0.7361   0.5438 
11    C6      -0.1190  -36.0770   21.8860 C.ar    1  LIG  -0.2550   0.0862 
12    C7      -1.1230  -35.3990   21.1890 C.ar    1  LIG  -0.0321  -0.1500 
13    H4      -1.7552  -34.6955   21.7041 H       1  LIG   0.1623   0.1500 
14    C8      -1.2960  -35.6300   19.8690 C.ar    1  LIG  -0.2723  -0.1500 
15    H5      -2.0662  -35.1073   19.3273 H       1  LIG   0.1522   0.1500 
16    C9      -0.4670  -36.5450   19.2400 C.ar    1  LIG   0.4373   0.1600 
17    H6      -0.5947  -36.7554   18.1915 H       1  LIG   0.0280   0.1500 
18    N3       0.5220  -37.2120   19.8740 N.ar    1  LIG  -0.6893  -0.6200 
19    C10      0.7040  -36.9790   21.1800 C.ar    1  LIG   0.6480   0.4100 
20    N4       1.7670  -37.6730   21.8260 N.pl3   1  LIG  -0.6924  -0.3690 
21    C11      2.7540  -36.8570   22.5840 C.ar    1  LIG   0.5805   0.4100 
22    C12      2.9040  -34.5090   25.6010 C.3     1  LIG  -0.0620   0.1435 
23    H7       2.2235  -33.7630   25.2820 H       1  LIG   0.0570   0.0000 
24    H8       2.4436  -35.1154   26.3371 H       1  LIG   0.0495   0.0000 
25    H9       3.7654  -34.0491   26.0108 H       1  LIG   0.0519   0.0000 
26    O1      -1.2400  -35.9060   23.9770 O.2     1  LIG  -0.6361  -0.5700 
27    C13      2.3440  -38.7570   21.0360 C.3     1  LIG   0.1354   0.0690 
28    H10      3.1238  -38.3754   20.4296 H       1  LIG   0.0981   0.1000 
29    C14      2.9380  -39.8900   21.8010 C.3     1  LIG  -0.1181  -0.2000 
30    H11      3.8890  -40.1268   21.3997 H       1  LIG   0.0732   0.1000 
31    H12      3.0430  -39.6129   22.8177 H       1  LIG   0.0789   0.1000 
32    C15      1.6390  -40.0610   21.0880 C.3     1  LIG  -0.1196  -0.2000 
33    H13      0.6832  -39.9283   21.5242 H       1  LIG   0.0807   0.1000 
34    H14      1.5292  -40.4423   20.1061 H       1  LIG   0.0733   0.1000 
@<TRIPOS>BOND
1     2     1     ar
2     3     2     1
3     4     2     ar
4     5     4     1
5     6     4     ar
6     7     6     ar
7     8     7     1
8     9     8     1
9     10    8     1
10    11    10    1
11    12    11    ar
12    13    12    1
13    14    12    ar
14    15    14    1
15    16    14    ar
16    17    16    1
17    18    16    ar
18    19    11    ar
19    19    18    ar
20    20    19    1
21    21    1     ar
22    21    7     ar
23    21    20    1
24    22    6     1
25    23    22    1
26    24    22    1
27    25    22    1
28    26    10    2
29    27    20    1
30    28    27    1
31    29    27    1
32    30    29    1
33    31    29    1
34    32    27    1
35    32    29    1
36    33    32    1
37    34    32    1
@<TRIPOS>SUBSTRUCTURE
1   LIG    1    
 
########## Name        : 1VRT.lig
########## Description : AM1BCC_CHARGES =  -0.0002 ORIGINAL_CHARGES =  -0.0000

@<TRIPOS>MOLECULE
1VRT.lig
34    37    1     0     0    
SMALL
USER_CHARGES
@<TRIPOS>ATOM
1     N1       4.0540  -36.9310   22.2210 N.ar    1  LIG  -0.6650  -0.6200 
2     C1       4.9660  -36.2380   22.9390 C.ar    1  LIG   0.3947   0.1600 
3     H1       6.0082  -36.2811   22.6707 H       1  LIG   0.0281   0.1500 
4     C2       4.6240  -35.4500   24.0360 C.ar    1  LIG  -0.2334  -0.1500 
5     H2       5.3884  -34.9151   24.5740 H       1  LIG   0.1480   0.1500 
6     C3       3.3050  -35.3690   24.4150 C.ar    1  LIG  -0.0698  -0.1435 
7     C4       2.3460  -36.0770   23.6860 C.ar    1  LIG  -0.0398   0.1170 
8     N2       0.9890  -36.0280   24.1030 N.am    1  LIG  -0.4596  -0.5470 
9     H3       0.7643  -35.9928   25.0860 H       1  LIG   0.3311   0.3700 
10    C5      -0.1450  -36.0180   23.4080 C.2     1  LIG   0.7361   0.5438 
11    C6      -0.1190  -36.0770   21.8860 C.ar    1  LIG  -0.2550   0.0862 
12    C7      -1.1230  -35.3990   21.1890 C.ar    1  LIG  -0.0321  -0.1500 
13    H4      -1.7552  -34.6955   21.7041 H       1  LIG   0.1623   0.1500 
14    C8      -1.2960  -35.6300   19.8690 C.ar    1  LIG  -0.2723  -0.1500 
15    H5      -2.0662  -35.1073   19.3273 H       1  LIG   0.1522   0.1500 
16    C9      -0.4670  -36.5450   19.2400 C.ar    1  LIG   0.4373   0.1600 
17    H6      -0.5947  -36.7554   18.1915 H       1  LIG   0.0280   0.1500 
18    N3       0.5220  -37.2120   19.8740 N.ar    1  LIG  -0.6893  -0.6200 
19    C10      0.7040  -36.9790   21.1800 C.ar    1  LIG   0.6480   0.4100 
20    N4       1.7670  -37.6730   21.8260 N.pl3   1  LIG  -0.6924  -0.3690 
21    C11      2.7540  -36.8570   22.5840 C.ar    1  LIG   0.5805   0.4100 
22    C12      2.9040  -34.5090   25.6010 C.3     1  LIG  -0.0620   0.1435 
23    H7       2.2235  -33.7630   25.2820 H       1  LIG   0.0570   0.0000 
24    H8       2.4436  -35.1154   26.3371 H       1  LIG   0.0495   0.0000 
25    H9       3.7654  -34.0491   26.0108 H       1  LIG   0.0519   0.0000 
26    O1      -1.2400  -35.9060   23.9770 O.2     1  LIG  -0.6361  -0.5700 
27    C13      2.3440  -38.7570   21.0360 C.3     1  LIG   0.1354   0.0690 
28    H10      3.1238  -38.3754   20.4296 H       1  LIG   0.0981   0.1000 
29    C14      2.9380  -39.8900   21.8010 C.3     1  LIG  -0.1181  -0.2000 
30    H11      3.8890  -40.1268   21.3997 H       1  LIG   0.0732   0.1000 
31    H12      3.0430  -39.6129   22.8177 H       1  LIG   0.0789   0.1000 
32    C15      1.6390  -40.0610   21.0880 C.3     1  LIG  -0.1196  -0.2000 
33    H13      0.6832  -39.9283   21.5242 H       1  LIG   0.0807   0.1000 
34    H14      1.5292  -40.4423   20.1061 H       1  LIG   0.0733   0.1000 
@<TRIPOS>BOND
1     2     1     ar
2     3     2     1
3     4     2     ar
4     5     4     1
5     6     4     ar
6     7     6     ar
7     8     7     1
8     9     8     1
9     10    8     1
10    11    10    1
11    12    11    ar
12    13    12    1
13    14    12    ar
14    15    14    1
15    16    14    ar
16    17    16    1
17    18    16    ar
18    19    11    ar
19    19    18    ar
20    20    19    1
21    21    1     ar
22    21    7     ar
23    21    20    1
24    22    6     1
25    23    22    1
26    24    22    1
27    25    22    1
28    26    10    2
29    27    20    1
30    28    27    1
31    29    27    1
32    30    29    1
33    31    29    1
34    32    27    1
35    32    29    1
36    33    32    1
37    34    32    1
@<TRIPOS>SUBSTRUCTURE
1   LIG    1    
 
########## Name        : 1VRT.lig
########## Description : AM1BCC_CHARGES =  -0.0002 ORIGINAL_CHARGES =  -0.0000

@<TRIPOS>MOLECULE
1VRT.lig
34    37    1     0     0    
SMALL
USER_CHARGES
@<TRIPOS>ATOM
1     N1       4.0540  -36.9310   22.2210 N.ar    1  LIG  -0.6650  -0.6200 
2     C1       4.9660  -36.2380   22.9390 C.ar    1  LIG   0.3947   0.1600 
3     H1       6.0082  -36.2811   22.6707 H       1  LIG   0.0281   0.1500 
4     C2       4.6240  -35.4500   24.0360 C.ar    1  LIG  -0.2334  -0.1500 
5     H2       5.3884  -34.9151   24.5740 H       1  LIG   0.1480   0.1500 
6     C3       3.3050  -35.3690   24.4150 C.ar    1  LIG  -0.0698  -0.1435 
7     C4       2.3460  -36.0770   23.6860 C.ar    1  LIG  -0.0398   0.1170 
8     N2       0.9890  -36.0280   24.1030 N.am    1  LIG  -0.4596  -0.5470 
9     H3       0.7643  -35.9928   25.0860 H       1  LIG   0.3311   0.3700 
10    C5      -0.1450  -36.0180   23.4080 C.2     1  LIG   0.7361   0.5438 
11    C6      -0.1190  -36.0770   21.8860 C.ar    1  LIG  -0.2550   0.0862 
12    C7      -1.1230  -35.3990   21.1890 C.ar    1  LIG  -0.0321  -0.1500 
13    H4      -1.7552  -34.6955   21.7041 H       1  LIG   0.1623   0.1500 
14    C8      -1.2960  -35.6300   19.8690 C.ar    1  LIG  -0.2723  -0.1500 
15    H5      -2.0662  -35.1073   19.3273 H       1  LIG   0.1522   0.1500 
16    C9      -0.4670  -36.5450   19.2400 C.ar    1  LIG   0.4373   0.1600 
17    H6      -0.5947  -36.7554   18.1915 H       1  LIG   0.0280   0.1500 
18    N3       0.5220  -37.2120   19.8740 N.ar    1  LIG  -0.6893  -0.6200 
19    C10      0.7040  -36.9790   21.1800 C.ar    1  LIG   0.6480   0.4100 
20    N4       1.7670  -37.6730   21.8260 N.pl3   1  LIG  -0.6924  -0.3690 
21    C11      2.7540  -36.8570   22.5840 C.ar    1  LIG   0.5805   0.4100 
22    C12      2.9040  -34.5090   25.6010 C.3     1  LIG  -0.0620   0.1435 
23    H7       2.2235  -33.7630   25.2820 H       1  LIG   0.0570   0.0000 
24    H8       2.4436  -35.1154   26.3371 H       1  LIG   0.0495   0.0000 
25    H9       3.7654  -34.0491   26.0108 H       1  LIG   0.0519   0.0000 
26    O1      -1.2400  -35.9060   23.9770 O.2     1  LIG  -0.6361  -0.5700 
27    C13      2.3440  -38.7570   21.0360 C.3     1  LIG   0.1354   0.0690 
28    H10      3.1238  -38.3754   20.4296 H       1  LIG   0.0981   0.1000 
29    C14      2.9380  -39.8900   21.8010 C.3     1  LIG  -0.1181  -0.2000 
30    H11      3.8890  -40.1268   21.3997 H       1  LIG   0.0732   0.1000 
31    H12      3.0430  -39.6129   22.8177 H       1  LIG   0.0789   0.1000 
32    C15      1.6390  -40.0610   21.0880 C.3     1  LIG  -0.1196  -0.2000 
33    H13      0.6832  -39.9283   21.5242 H       1  LIG   0.0807   0.1000 
34    H14      1.5292  -40.4423   20.1061 H       1  LIG   0.0733   0.1000 
@<TRIPOS>BOND
1     2     1     ar
2     3     2     1
3     4     2     ar
4     5     4     1
5     6     4     ar
6     7     6     ar
7     8     7     1
8     9     8     1
9     10    8     1
10    11    10    1
11    12    11    ar
12    13    12    1
13    14    12    ar
14    15    14    1
15    16    14    ar
16    17    16    1
17    18    16    ar
18    19    11    ar
19    19    18    ar
20    20    19    1
21    21    1     ar
22    21    7     ar
23    21    20    1
24    22    6     1
25    23    22    1
26    24    22    1
27    25    22    1
28    26    10    2
29    27    20    1
30    28    27    1
31    29    27    1
32    30    29    1
33    31    29    1
34    32    27    1
35    32    29    1
36    33    32    1
37    34    32    1
@<TRIPOS>SUBSTRUCTURE
1   LIG    1    
 
########## Name        : 1VRT.lig
########## Description : AM1BCC_CHARGES =  -0.0002 ORIGINAL_CHARGES =  -0.0000

@<TRIPOS>MOLECULE
1VRT.lig
34    37    1     0     0    
SMALL
USER_CHARGES
@<TRIPOS>ATOM
1     N1       4.0540  -36.9310   22.2210 N.ar    1  LIG  -0.6650  -0.6200 
2     C1       4.9660  -36.2380   22.9390 C.ar    1  LIG   0.3947   0.1600 
3     H1       6.0082  -36.2811   22.6707 H       1  LIG   0.0281   0.1500 
4     C2       4.6240  -35.4500   24.0360 C.ar    1  LIG  -0.2334  -0.1500 
5     H2       5.3884  -34.9151   24.5740 H       1  LIG   0.1480   0.1500 
6     C3       3.3050  -35.3690   24.4150 C.ar    1  LIG  -0.0698  -0.1435 
7     C4       2.3460  -36.0770   23.6860 C.ar    1  LIG  -0.0398   0.1170 
8     N2       0.9890  -36.0280   24.1030 N.am    1  LIG  -0.4596  -0.5470 
9     H3       0.7643  -35.9928   25.0860 H       1  LIG   0.3311   0.3700 
10    C5      -0.1450  -36.0180   23.4080 C.2     1  LIG   0.7361   0.5438 
11    C6      -0.1190  -36.0770   21.8860 C.ar    1  LIG  -0.2550   0.0862 
12    C7      -1.1230  -35.3990   21.1890 C.ar    1  LIG  -0.0321  -0.1500 
13    H4      -1.7552  -34.6955   21.7041 H       1  LIG   0.1623   0.1500 
14    C8      -1.2960  -35.6300   19.8690 C.ar    1  LIG  -0.2723  -0.1500 
15    H5      -2.0662  -35.1073   19.3273 H       1  LIG   0.1522   0.1500 
16    C9      -0.4670  -36.5450   19.2400 C.ar    1  LIG   0.4373   0.1600 
17    H6      -0.5947  -36.7554   18.1915 H       1  LIG   0.0280   0.1500 
18    N3       0.5220  -37.2120   19.8740 N.ar    1  LIG  -0.6893  -0.6200 
19    C10      0.7040  -36.9790   21.1800 C.ar    1  LIG   0.6480   0.4100 
20    N4       1.7670  -37.6730   21.8260 N.pl3   1  LIG  -0.6924  -0.3690 
21    C11      2.7540  -36.8570   22.5840 C.ar    1  LIG   0.5805   0.4100 
22    C12      2.9040  -34.5090   25.6010 C.3     1  LIG  -0.0620   0.1435 
23    H7       2.2235  -33.7630   25.2820 H       1  LIG   0.0570   0.0000 
24    H8       2.4436  -35.1154   26.3371 H       1  LIG   0.0495   0.0000 
25    H9       3.7654  -34.0491   26.0108 H       1  LIG   0.0519   0.0000 
26    O1      -1.2400  -35.9060   23.9770 O.2     1  LIG  -0.6361  -0.5700 
27    C13      2.3440  -38.7570   21.0360 C.3     1  LIG   0.1354   0.0690 
28    H10      3.1238  -38.3754   20.4296 H       1  LIG   0.0981   0.1000 
29    C14      2.9380  -39.8900   21.8010 C.3     1  LIG  -0.1181  -0.2000 
30    H11      3.8890  -40.1268   21.3997 H       1  LIG   0.0732   0.1000 
31    H12      3.0430  -39.6129   22.8177 H       1  LIG   0.0789   0.1000 
32    C15      1.6390  -40.0610   21.0880 C.3     1  LIG  -0.1196  -0.2000 
33    H13      0.6832  -39.9283   21.5242 H       1  LIG   0.0807   0.1000 
34    H14      1.5292  -40.4423   20.1061 H       1  LIG   0.0733   0.1000 
@<TRIPOS>BOND
1     2     1     ar
2     3     2     1
3     4     2     ar
4     5     4     1
5     6     4     ar
6     7     6     ar
7     8     7     1
8     9     8     1
9     10    8     1
10    11    10    1
11    12    11    ar
12    13    12    1
13    14    12    ar
14    15    14    1
15    16    14    ar
16    17    16    1
17    18    16    ar
18    19    11    ar
19    19    18    ar
20    20    19    1
21    21    1     ar
22    21    7     ar
23    21    20    1
24    22    6     1
25    23    22    1
26    24    22    1
27    25    22    1
28    26    10    2
29    27    20    1
30    28    27    1
31    29    27    1
32    30    29    1
33    31    29    1
34    32    27    1
35    32    29    1
36    33    32    1
37    34    32    1
@<TRIPOS>SUBSTRUCTURE
1   LIG    1    
 
########## Name        : 1VRT.lig
########## Description : AM1BCC_CHARGES =  -0.0002 ORIGINAL_CHARGES =  -0.0000

@<TRIPOS>MOLECULE
1VRT.lig
34    37    1     0     0    
SMALL
USER_CHARGES
@<TRIPOS>ATOM
1     N1       4.0540  -36.9310   22.2210 N.ar    1  LIG  -0.6650  -0.6200 
2     C1       4.9660  -36.2380   22.9390 C.ar    1  LIG   0.3947   0.1600 
3     H1       6.0082  -36.2811   22.6707 H       1  LIG   0.0281   0.1500 
4     C2       4.6240  -35.4500   24.0360 C.ar    1  LIG  -0.2334  -0.1500 
5     H2       5.3884  -34.9151   24.5740 H       1  LIG   0.1480   0.1500 
6     C3       3.3050  -35.3690   24.4150 C.ar    1  LIG  -0.0698  -0.1435 
7     C4       2.3460  -36.0770   23.6860 C.ar    1  LIG  -0.0398   0.1170 
8     N2       0.9890  -36.0280   24.1030 N.am    1  LIG  -0.4596  -0.5470 
9     H3       0.7643  -35.9928   25.0860 H       1  LIG   0.3311   0.3700 
10    C5      -0.1450  -36.0180   23.4080 C.2     1  LIG   0.7361   0.5438 
11    C6      -0.1190  -36.0770   21.8860 C.ar    1  LIG  -0.2550   0.0862 
12    C7      -1.1230  -35.3990   21.1890 C.ar    1  LIG  -0.0321  -0.1500 
13    H4      -1.7552  -34.6955   21.7041 H       1  LIG   0.1623   0.1500 
14    C8      -1.2960  -35.6300   19.8690 C.ar    1  LIG  -0.2723  -0.1500 
15    H5      -2.0662  -35.1073   19.3273 H       1  LIG   0.1522   0.1500 
16    C9      -0.4670  -36.5450   19.2400 C.ar    1  LIG   0.4373   0.1600 
17    H6      -0.5947  -36.7554   18.1915 H       1  LIG   0.0280   0.1500 
18    N3       0.5220  -37.2120   19.8740 N.ar    1  LIG  -0.6893  -0.6200 
19    C10      0.7040  -36.9790   21.1800 C.ar    1  LIG   0.6480   0.4100 
20    N4       1.7670  -37.6730   21.8260 N.pl3   1  LIG  -0.6924  -0.3690 
21    C11      2.7540  -36.8570   22.5840 C.ar    1  LIG   0.5805   0.4100 
22    C12      2.9040  -34.5090   25.6010 C.3     1  LIG  -0.0620   0.1435 
23    H7       2.2235  -33.7630   25.2820 H       1  LIG   0.0570   0.0000 
24    H8       2.4436  -35.1154   26.3371 H       1  LIG   0.0495   0.0000 
25    H9       3.7654  -34.0491   26.0108 H       1  LIG   0.0519   0.0000 
26    O1      -1.2400  -35.9060   23.9770 O.2     1  LIG  -0.6361  -0.5700 
27    C13      2.3440  -38.7570   21.0360 C.3     1  LIG   0.1354   0.0690 
28    H10      3.1238  -38.3754   20.4296 H       1  LIG   0.0981   0.1000 
29    C14      2.9380  -39.8900   21.8010 C.3     1  LIG  -0.1181  -0.2000 
30    H11      3.8890  -40.1268   21.3997 H       1  LIG   0.0732   0.1000 
31    H12      3.0430  -39.6129   22.8177 H       1  LIG   0.0789   0.1000 
32    C15      1.6390  -40.0610   21.0880 C.3     1  LIG  -0.1196  -0.2000 
33    H13      0.6832  -39.9283   21.5242 H       1  LIG   0.0807   0.1000 
34    H14      1.5292  -40.4423   20.1061 H       1  LIG   0.0733   0.1000 
@<TRIPOS>BOND
1     2     1     ar
2     3     2     1
3     4     2     ar
4     5     4     1
5     6     4     ar
6     7     6     ar
7     8     7     1
8     9     8     1
9     10    8     1
10    11    10    1
11    12    11    ar
12    13    12    1
13    14    12    ar
14    15    14    1
15    16    14    ar
16    17    16    1
17    18    16    ar
18    19    11    ar
19    19    18    ar
20    20    19    1
21    21    1     ar
22    21    7     ar
23    21    20    1
24    22    6     1
25    23    22    1
26    24    22    1
27    25    22    1
28    26    10    2
29    27    20    1
30    28    27    1
31    29    27    1
32    30    29    1
33    31    29    1
34    32    27    1
35    32    29    1
36    33    32    1
37    34    32    1
@<TRIPOS>SUBSTRUCTURE
1   LIG    1    
 
########## Name        : 1VRT.lig
########## Description : AM1BCC_CHARGES =  -0.0002 ORIGINAL_CHARGES =  -0.0000

@<TRIPOS>MOLECULE
1VRT.lig
34    37    1     0     0    
SMALL
USER_CHARGES
@<TRIPOS>ATOM
1     N1       4.0540  -36.9310   22.2210 N.ar    1  LIG  -0.6650  -0.6200 
2     C1       4.9660  -36.2380   22.9390 C.ar    1  LIG   0.3947   0.1600 
3     H1       6.0082  -36.2811   22.6707 H       1  LIG   0.0281   0.1500 
4     C2       4.6240  -35.4500   24.0360 C.ar    1  LIG  -0.2334  -0.1500 
5     H2       5.3884  -34.9151   24.5740 H       1  LIG   0.1480   0.1500 
6     C3       3.3050  -35.3690   24.4150 C.ar    1  LIG  -0.0698  -0.1435 
7     C4       2.3460  -36.0770   23.6860 C.ar    1  LIG  -0.0398   0.1170 
8     N2       0.9890  -36.0280   24.1030 N.am    1  LIG  -0.4596  -0.5470 
9     H3       0.7643  -35.9928   25.0860 H       1  LIG   0.3311   0.3700 
10    C5      -0.1450  -36.0180   23.4080 C.2     1  LIG   0.7361   0.5438 
11    C6      -0.1190  -36.0770   21.8860 C.ar    1  LIG  -0.2550   0.0862 
12    C7      -1.1230  -35.3990   21.1890 C.ar    1  LIG  -0.0321  -0.1500 
13    H4      -1.7552  -34.6955   21.7041 H       1  LIG   0.1623   0.1500 
14    C8      -1.2960  -35.6300   19.8690 C.ar    1  LIG  -0.2723  -0.1500 
15    H5      -2.0662  -35.1073   19.3273 H       1  LIG   0.1522   0.1500 
16    C9      -0.4670  -36.5450   19.2400 C.ar    1  LIG   0.4373   0.1600 
17    H6      -0.5947  -36.7554   18.1915 H       1  LIG   0.0280   0.1500 
18    N3       0.5220  -37.2120   19.8740 N.ar    1  LIG  -0.6893  -0.6200 
19    C10      0.7040  -36.9790   21.1800 C.ar    1  LIG   0.6480   0.4100 
20    N4       1.7670  -37.6730   21.8260 N.pl3   1  LIG  -0.6924  -0.3690 
21    C11      2.7540  -36.8570   22.5840 C.ar    1  LIG   0.5805   0.4100 
22    C12      2.9040  -34.5090   25.6010 C.3     1  LIG  -0.0620   0.1435 
23    H7       2.2235  -33.7630   25.2820 H       1  LIG   0.0570   0.0000 
24    H8       2.4436  -35.1154   26.3371 H       1  LIG   0.0495   0.0000 
25    H9       3.7654  -34.0491   26.0108 H       1  LIG   0.0519   0.0000 
26    O1      -1.2400  -35.9060   23.9770 O.2     1  LIG  -0.6361  -0.5700 
27    C13      2.3440  -38.7570   21.0360 C.3     1  LIG   0.1354   0.0690 
28    H10      3.1238  -38.3754   20.4296 H       1  LIG   0.0981   0.1000 
29    C14      2.9380  -39.8900   21.8010 C.3     1  LIG  -0.1181  -0.2000 
30    H11      3.8890  -40.1268   21.3997 H       1  LIG   0.0732   0.1000 
31    H12      3.0430  -39.6129   22.8177 H       1  LIG   0.0789   0.1000 
32    C15      1.6390  -40.0610   21.0880 C.3     1  LIG  -0.1196  -0.2000 
33    H13      0.6832  -39.9283   21.5242 H       1  LIG   0.0807   0.1000 
34    H14      1.5292  -40.4423   20.1061 H       1  LIG   0.0733   0.1000 
@<TRIPOS>BOND
1     2     1     ar
2     3     2     1
3     4     2     ar
4     5     4     1
5     6     4     ar
6     7     6     ar
7     8     7     1
8     9     8     1
9     10    8     1
10    11    10    1
11    12    11    ar
12    13    12    1
13    14    12    ar
14    15    14    1
15    16    14    ar
16    17    16    1
17    18    16    ar
18    19    11    ar
19    19    18    ar
20    20    19    1
21    21    1     ar
22    21    7     ar
23    21    20    1
24    22    6     1
25    23    22    1
26    24    22    1
27    25    22    1
28    26    10    2
29    27    20    1
30    28    27    1
31    29    27    1
32    30    29    1
33    31    29    1
34    32    27    1
35    32    29    1
36    33    32    1
37    34    32    1
@<TRIPOS>SUBSTRUCTURE
1   LIG    1    
 
########## Name        : 1VRT.lig
########## Description : AM1BCC_CHARGES =  -0.0002 ORIGINAL_CHARGES =  -0.0000

@<TRIPOS>MOLECULE
1VRT.lig
34    37    1     0     0    
SMALL
USER_CHARGES
@<TRIPOS>ATOM
1     N1       4.0540  -36.9310   22.2210 N.ar    1  LIG  -0.6650  -0.6200 
2     C1       4.9660  -36.2380   22.9390 C.ar    1  LIG   0.3947   0.1600 
3     H1       6.0082  -36.2811   22.6707 H       1  LIG   0.0281   0.1500 
4     C2       4.6240  -35.4500   24.0360 C.ar    1  LIG  -0.2334  -0.1500 
5     H2       5.3884  -34.9151   24.5740 H       1  LIG   0.1480   0.1500 
6     C3       3.3050  -35.3690   24.4150 C.ar    1  LIG  -0.0698  -0.1435 
7     C4       2.3460  -36.0770   23.6860 C.ar    1  LIG  -0.0398   0.1170 
8     N2       0.9890  -36.0280   24.1030 N.am    1  LIG  -0.4596  -0.5470 
9     H3       0.7643  -35.9928   25.0860 H       1  LIG   0.3311   0.3700 
10    C5      -0.1450  -36.0180   23.4080 C.2     1  LIG   0.7361   0.5438 
11    C6      -0.1190  -36.0770   21.8860 C.ar    1  LIG  -0.2550   0.0862 
12    C7      -1.1230  -35.3990   21.1890 C.ar    1  LIG  -0.0321  -0.1500 
13    H4      -1.7552  -34.6955   21.7041 H       1  LIG   0.1623   0.1500 
14    C8      -1.2960  -35.6300   19.8690 C.ar    1  LIG  -0.2723  -0.1500 
15    H5      -2.0662  -35.1073   19.3273 H       1  LIG   0.1522   0.1500 
16    C9      -0.4670  -36.5450   19.2400 C.ar    1  LIG   0.4373   0.1600 
17    H6      -0.5947  -36.7554   18.1915 H       1  LIG   0.0280   0.1500 
18    N3       0.5220  -37.2120   19.8740 N.ar    1  LIG  -0.6893  -0.6200 
19    C10      0.7040  -36.9790   21.1800 C.ar    1  LIG   0.6480   0.4100 
20    N4       1.7670  -37.6730   21.8260 N.pl3   1  LIG  -0.6924  -0.3690 
21    C11      2.7540  -36.8570   22.5840 C.ar    1  LIG   0.5805   0.4100 
22    C12      2.9040  -34.5090   25.6010 C.3     1  LIG  -0.0620   0.1435 
23    H7       2.2235  -33.7630   25.2820 H       1  LIG   0.0570   0.0000 
24    H8       2.4436  -35.1154   26.3371 H       1  LIG   0.0495   0.0000 
25    H9       3.7654  -34.0491   26.0108 H       1  LIG   0.0519   0.0000 
26    O1      -1.2400  -35.9060   23.9770 O.2     1  LIG  -0.6361  -0.5700 
27    C13      2.3440  -38.7570   21.0360 C.3     1  LIG   0.1354   0.0690 
28    H10      3.1238  -38.3754   20.4296 H       1  LIG   0.0981   0.1000 
29    C14      2.9380  -39.8900   21.8010 C.3     1  LIG  -0.1181  -0.2000 
30    H11      3.8890  -40.1268   21.3997 H       1  LIG   0.0732   0.1000 
31    H12      3.0430  -39.6129   22.8177 H       1  LIG   0.0789   0.1000 
32    C15      1.6390  -40.0610   21.0880 C.3     1  LIG  -0.1196  -0.2000 
33    H13      0.6832  -39.9283   21.5242 H       1  LIG   0.0807   0.1000 
34    H14      1.5292  -40.4423   20.1061 H       1  LIG   0.0733   0.1000 
@<TRIPOS>BOND
1     2     1     ar
2     3     2     1
3     4     2     ar
4     5     4     1
5     6     4     ar
6     7     6     ar
7     8     7     1
8     9     8     1
9     10    8     1
10    11    10    1
11    12    11    ar
12    13    12    1
13    14    12    ar
14    15    14    1
15    16    14    ar
16    17    16    1
17    18    16    ar
18    19    11    ar
19    19    18    ar
20    20    19    1
21    21    1     ar
22    21    7     ar
23    21    20    1
24    22    6     1
25    23    22    1
26    24    22    1
27    25    22    1
28    26    10    2
29    27    20    1
30    28    27    1
31    29    27    1
32    30    29    1
33    31    29    1
34    32    27    1
35    32    29    1
36    33    32    1
37    34    32    1
@<TRIPOS>SUBSTRUCTURE
1   LIG    1    
 
########## Name        : 1VRT.lig
########## Description : AM1BCC_CHARGES =  -0.0002 ORIGINAL_CHARGES =  -0.0000

@<TRIPOS>MOLECULE
1VRT.lig
34    37    1     0     0    
SMALL
USER_CHARGES
@<TRIPOS>ATOM
1     N1       4.0540  -36.9310   22.2210 N.ar    1  LIG  -0.6650  -0.6200 
2     C1       4.9660  -36.2380   22.9390 C.ar    1  LIG   0.3947   0.1600 
3     H1       6.0082  -36.2811   22.6707 H       1  LIG   0.0281   0.1500 
4     C2       4.6240  -35.4500   24.0360 C.ar    1  LIG  -0.2334  -0.1500 
5     H2       5.3884  -34.9151   24.5740 H       1  LIG   0.1480   0.1500 
6     C3       3.3050  -35.3690   24.4150 C.ar    1  LIG  -0.0698  -0.1435 
7     C4       2.3460  -36.0770   23.6860 C.ar    1  LIG  -0.0398   0.1170 
8     N2       0.9890  -36.0280   24.1030 N.am    1  LIG  -0.4596  -0.5470 
9     H3       0.7643  -35.9928   25.0860 H       1  LIG   0.3311   0.3700 
10    C5      -0.1450  -36.0180   23.4080 C.2     1  LIG   0.7361   0.5438 
11    C6      -0.1190  -36.0770   21.8860 C.ar    1  LIG  -0.2550   0.0862 
12    C7      -1.1230  -35.3990   21.1890 C.ar    1  LIG  -0.0321  -0.1500 
13    H4      -1.7552  -34.6955   21.7041 H       1  LIG   0.1623   0.1500 
14    C8      -1.2960  -35.6300   19.8690 C.ar    1  LIG  -0.2723  -0.1500 
15    H5      -2.0662  -35.1073   19.3273 H       1  LIG   0.1522   0.1500 
16    C9      -0.4670  -36.5450   19.2400 C.ar    1  LIG   0.4373   0.1600 
17    H6      -0.5947  -36.7554   18.1915 H       1  LIG   0.0280   0.1500 
18    N3       0.5220  -37.2120   19.8740 N.ar    1  LIG  -0.6893  -0.6200 
19    C10      0.7040  -36.9790   21.1800 C.ar    1  LIG   0.6480   0.4100 
20    N4       1.7670  -37.6730   21.8260 N.pl3   1  LIG  -0.6924  -0.3690 
21    C11      2.7540  -36.8570   22.5840 C.ar    1  LIG   0.5805   0.4100 
22    C12      2.9040  -34.5090   25.6010 C.3     1  LIG  -0.0620   0.1435 
23    H7       2.2235  -33.7630   25.2820 H       1  LIG   0.0570   0.0000 
24    H8       2.4436  -35.1154   26.3371 H       1  LIG   0.0495   0.0000 
25    H9       3.7654  -34.0491   26.0108 H       1  LIG   0.0519   0.0000 
26    O1      -1.2400  -35.9060   23.9770 O.2     1  LIG  -0.6361  -0.5700 
27    C13      2.3440  -38.7570   21.0360 C.3     1  LIG   0.1354   0.0690 
28    H10      3.1238  -38.3754   20.4296 H       1  LIG   0.0981   0.1000 
29    C14      2.9380  -39.8900   21.8010 C.3     1  LIG  -0.1181  -0.2000 
30    H11      3.8890  -40.1268   21.3997 H       1  LIG   0.0732   0.1000 
31    H12      3.0430  -39.6129   22.8177 H       1  LIG   0.0789   0.1000 
32    C15      1.6390  -40.0610   21.0880 C.3     1  LIG  -0.1196  -0.2000 
33    H13      0.6832  -39.9283   21.5242 H       1  LIG   0.0807   0.1000 
34    H14      1.5292  -40.4423   20.1061 H       1  LIG   0.0733   0.1000 
@<TRIPOS>BOND
1     2     1     ar
2     3     2     1
3     4     2     ar
4     5     4     1
5     6     4     ar
6     7     6     ar
7     8     7     1
8     9     8     1
9     10    8     1
10    11    10    1
11    12    11    ar
12    13    12    1
13    14    12    ar
14    15    14    1
15    16    14    ar
16    17    16    1
17    18    16    ar
18    19    11    ar
19    19    18    ar
20    20    19    1
21    21    1     ar
22    21    7     ar
23    21    20    1
24    22    6     1
25    23    22    1
26    24    22    1
27    25    22    1
28    26    10    2
29    27    20    1
30    28    27    1
31    29    27    1
32    30    29    1
33    31    29    1
34    32    27    1
35    32    29    1
36    33    32    1
37    34    32    1
@<TRIPOS>SUBSTRUCTURE
1   LIG    1    
 
########## Name        : 1VRT.lig
########## Description : AM1BCC_CHARGES =  -0.0002 ORIGINAL_CHARGES =  -0.0000

@<TRIPOS>MOLECULE
1VRT.lig
34    37    1     0     0    
SMALL
USER_CHARGES
@<TRIPOS>ATOM
1     N1       4.0540  -36.9310   22.2210 N.ar    1  LIG  -0.6650  -0.6200 
2     C1       4.9660  -36.2380   22.9390 C.ar    1  LIG   0.3947   0.1600 
3     H1       6.0082  -36.2811   22.6707 H       1  LIG   0.0281   0.1500 
4     C2       4.6240  -35.4500   24.0360 C.ar    1  LIG  -0.2334  -0.1500 
5     H2       5.3884  -34.9151   24.5740 H       1  LIG   0.1480   0.1500 
6     C3       3.3050  -35.3690   24.4150 C.ar    1  LIG  -0.0698  -0.1435 
7     C4       2.3460  -36.0770   23.6860 C.ar    1  LIG  -0.0398   0.1170 
8     N2       0.9890  -36.0280   24.1030 N.am    1  LIG  -0.4596  -0.5470 
9     H3       0.7643  -35.9928   25.0860 H       1  LIG   0.3311   0.3700 
10    C5      -0.1450  -36.0180   23.4080 C.2     1  LIG   0.7361   0.5438 
11    C6      -0.1190  -36.0770   21.8860 C.ar    1  LIG  -0.2550   0.0862 
12    C7      -1.1230  -35.3990   21.1890 C.ar    1  LIG  -0.0321  -0.1500 
13    H4      -1.7552  -34.6955   21.7041 H       1  LIG   0.1623   0.1500 
14    C8      -1.2960  -35.6300   19.8690 C.ar    1  LIG  -0.2723  -0.1500 
15    H5      -2.0662  -35.1073   19.3273 H       1  LIG   0.1522   0.1500 
16    C9      -0.4670  -36.5450   19.2400 C.ar    1  LIG   0.4373   0.1600 
17    H6      -0.5947  -36.7554   18.1915 H       1  LIG   0.0280   0.1500 
18    N3       0.5220  -37.2120   19.8740 N.ar    1  LIG  -0.6893  -0.6200 
19    C10      0.7040  -36.9790   21.1800 C.ar    1  LIG   0.6480   0.4100 
20    N4       1.7670  -37.6730   21.8260 N.pl3   1  LIG  -0.6924  -0.3690 
21    C11      2.7540  -36.8570   22.5840 C.ar    1  LIG   0.5805   0.4100 
22    C12      2.9040  -34.5090   25.6010 C.3     1  LIG  -0.0620   0.1435 
23    H7       2.2235  -33.7630   25.2820 H       1  LIG   0.0570   0.0000 
24    H8       2.4436  -35.1154   26.3371 H       1  LIG   0.0495   0.0000 
25    H9       3.7654  -34.0491   26.0108 H       1  LIG   0.0519   0.0000 
26    O1      -1.2400  -35.9060   23.9770 O.2     1  LIG  -0.6361  -0.5700 
27    C13      2.3440  -38.7570   21.0360 C.3     1  LIG   0.1354   0.0690 
28    H10      3.1238  -38.3754   20.4296 H       1  LIG   0.0981   0.1000 
29    C14      2.9380  -39.8900   21.8010 C.3     1  LIG  -0.1181  -0.2000 
30    H11      3.8890  -40.1268   21.3997 H       1  LIG   0.0732   0.1000 
31    H12      3.0430  -39.6129   22.8177 H       1  LIG   0.0789   0.1000 
32    C15      1.6390  -40.0610   21.0880 C.3     1  LIG  -0.1196  -0.2000 
33    H13      0.6832  -39.9283   21.5242 H       1  LIG   0.0807   0.1000 
34    H14      1.5292  -40.4423   20.1061 H       1  LIG   0.0733   0.1000 
@<TRIPOS>BOND
1     2     1     ar
2     3     2     1
3     4     2     ar
4     5     4     1
5     6     4     ar
6     7     6     ar
7     8     7     1
8     9     8     1
9     10    8     1
10    11    10    1
11    12    11    ar
12    13    12    1
13    14    12    ar
14    15    14    1
15    16    14    ar
16    17    16    1
17    18    16    ar
18    19    11    ar
19    19    18    ar
20    20    19    1
21    21    1     ar
22    21    7     ar
23    21    20    1
24    22    6     1
25    23    22    1
26    24    22    1
27    25    22    1
28    26    10    2
29    27    20    1
30    28    27    1
31    29    27    1
32    30    29    1
33    31    29    1
34    32    27    1
35    32    29    1
36    33    32    1
37    34    32    1
@<TRIPOS>SUBSTRUCTURE
1   LIG    1    
 
########## Name        : 1VRT.lig
########## Description : AM1BCC_CHARGES =  -0.0002 ORIGINAL_CHARGES =  -0.0000

@<TRIPOS>MOLECULE
1VRT.lig
34    37    1     0     0    
SMALL
USER_CHARGES
@<TRIPOS>ATOM
1     N1       4.0540  -36.9310   22.2210 N.ar    1  LIG  -0.6650  -0.6200 
2     C1       4.9660  -36.2380   22.9390 C.ar    1  LIG   0.3947   0.1600 
3     H1       6.0082  -36.2811   22.6707 H       1  LIG   0.0281   0.1500 
4     C2       4.6240  -35.4500   24.0360 C.ar    1  LIG  -0.2334  -0.1500 
5     H2       5.3884  -34.9151   24.5740 H       1  LIG   0.1480   0.1500 
6     C3       3.3050  -35.3690   24.4150 C.ar    1  LIG  -0.0698  -0.1435 
7     C4       2.3460  -36.0770   23.6860 C.ar    1  LIG  -0.0398   0.1170 
8     N2       0.9890  -36.0280   24.1030 N.am    1  LIG  -0.4596  -0.5470 
9     H3       0.7643  -35.9928   25.0860 H       1  LIG   0.3311   0.3700 
10    C5      -0.1450  -36.0180   23.4080 C.2     1  LIG   0.7361   0.5438 
11    C6      -0.1190  -36.0770   21.8860 C.ar    1  LIG  -0.2550   0.0862 
12    C7      -1.1230  -35.3990   21.1890 C.ar    1  LIG  -0.0321  -0.1500 
13    H4      -1.7552  -34.6955   21.7041 H       1  LIG   0.1623   0.1500 
14    C8      -1.2960  -35.6300   19.8690 C.ar    1  LIG  -0.2723  -0.1500 
15    H5      -2.0662  -35.1073   19.3273 H       1  LIG   0.1522   0.1500 
16    C9      -0.4670  -36.5450   19.2400 C.ar    1  LIG   0.4373   0.1600 
17    H6      -0.5947  -36.7554   18.1915 H       1  LIG   0.0280   0.1500 
18    N3       0.5220  -37.2120   19.8740 N.ar    1  LIG  -0.6893  -0.6200 
19    C10      0.7040  -36.9790   21.1800 C.ar    1  LIG   0.6480   0.4100 
20    N4       1.7670  -37.6730   21.8260 N.pl3   1  LIG  -0.6924  -0.3690 
21    C11      2.7540  -36.8570   22.5840 C.ar    1  LIG   0.5805   0.4100 
22    C12      2.9040  -34.5090   25.6010 C.3     1  LIG  -0.0620   0.1435 
23    H7       2.2235  -33.7630   25.2820 H       1  LIG   0.0570   0.0000 
24    H8       2.4436  -35.1154   26.3371 H       1  LIG   0.0495   0.0000 
25    H9       3.7654  -34.0491   26.0108 H       1  LIG   0.0519   0.0000 
26    O1      -1.2400  -35.9060   23.9770 O.2     1  LIG  -0.6361  -0.5700 
27    C13      2.3440  -38.7570   21.0360 C.3     1  LIG   0.1354   0.0690 
28    H10      3.1238  -38.3754   20.4296 H       1  LIG   0.0981   0.1000 
29    C14      2.9380  -39.8900   21.8010 C.3     1  LIG  -0.1181  -0.2000 
30    H11      3.8890  -40.1268   21.3997 H       1  LIG   0.0732   0.1000 
31    H12      3.0430  -39.6129   22.8177 H       1  LIG   0.0789   0.1000 
32    C15      1.6390  -40.0610   21.0880 C.3     1  LIG  -0.1196  -0.2000 
33    H13      0.6832  -39.9283   21.5242 H       1  LIG   0.0807   0.1000 
34    H14      1.5292  -40.4423   20.1061 H       1  LIG   0.0733   0.1000 
@<TRIPOS>BOND
1     2     1     ar
2     3     2     1
3     4     2     ar
4     5     4     1
5     6     4     ar
6     7     6     ar
7     8     7     1
8     9     8     1
9     10    8     1
10    11    10    1
11    12    11    ar
12    13    12    1
13    14    12    ar
14    15    14    1
15    16    14    ar
16    17    16    1
17    18    16    ar
18    19    11    ar
19    19    18    ar
20    20    19    1
21    21    1     ar
22    21    7     ar
23    21    20    1
24    22    6     1
25    23    22    1
26    24    22    1
27    25    22    1
28    26    10    2
29    27    20    1
30    28    27    1
31    29    27    1
32    30    29    1
33    31    29    1
34    32    27    1
35    32    29    1
36    33    32    1
37    34    32    1
@<TRIPOS>SUBSTRUCTURE
1   LIG    1    
 
########## Name        : 1VRT.lig
########## Description : AM1BCC_CHARGES =  -0.0002 ORIGINAL_CHARGES =  -0.0000

@<TRIPOS>MOLECULE
1VRT.lig
34    37    1     0     0    
SMALL
USER_CHARGES
@<TRIPOS>ATOM
1     N1       4.0540  -36.9310   22.2210 N.ar    1  LIG  -0.6650  -0.6200 
2     C1       4.9660  -36.2380   22.9390 C.ar    1  LIG   0.3947   0.1600 
3     H1       6.0082  -36.2811   22.6707 H       1  LIG   0.0281   0.1500 
4     C2       4.6240  -35.4500   24.0360 C.ar    1  LIG  -0.2334  -0.1500 
5     H2       5.3884  -34.9151   24.5740 H       1  LIG   0.1480   0.1500 
6     C3       3.3050  -35.3690   24.4150 C.ar    1  LIG  -0.0698  -0.1435 
7     C4       2.3460  -36.0770   23.6860 C.ar    1  LIG  -0.0398   0.1170 
8     N2       0.9890  -36.0280   24.1030 N.am    1  LIG  -0.4596  -0.5470 
9     H3       0.7643  -35.9928   25.0860 H       1  LIG   0.3311   0.3700 
10    C5      -0.1450  -36.0180   23.4080 C.2     1  LIG   0.7361   0.5438 
11    C6      -0.1190  -36.0770   21.8860 C.ar    1  LIG  -0.2550   0.0862 
12    C7      -1.1230  -35.3990   21.1890 C.ar    1  LIG  -0.0321  -0.1500 
13    H4      -1.7552  -34.6955   21.7041 H       1  LIG   0.1623   0.1500 
14    C8      -1.2960  -35.6300   19.8690 C.ar    1  LIG  -0.2723  -0.1500 
15    H5      -2.0662  -35.1073   19.3273 H       1  LIG   0.1522   0.1500 
16    C9      -0.4670  -36.5450   19.2400 C.ar    1  LIG   0.4373   0.1600 
17    H6      -0.5947  -36.7554   18.1915 H       1  LIG   0.0280   0.1500 
18    N3       0.5220  -37.2120   19.8740 N.ar    1  LIG  -0.6893  -0.6200 
19    C10      0.7040  -36.9790   21.1800 C.ar    1  LIG   0.6480   0.4100 
20    N4       1.7670  -37.6730   21.8260 N.pl3   1  LIG  -0.6924  -0.3690 
21    C11      2.7540  -36.8570   22.5840 C.ar    1  LIG   0.5805   0.4100 
22    C12      2.9040  -34.5090   25.6010 C.3     1  LIG  -0.0620   0.1435 
23    H7       2.2235  -33.7630   25.2820 H       1  LIG   0.0570   0.0000 
24    H8       2.4436  -35.1154   26.3371 H       1  LIG   0.0495   0.0000 
25    H9       3.7654  -34.0491   26.0108 H       1  LIG   0.0519   0.0000 
26    O1      -1.2400  -35.9060   23.9770 O.2     1  LIG  -0.6361  -0.5700 
27    C13      2.3440  -38.7570   21.0360 C.3     1  LIG   0.1354   0.0690 
28    H10      3.1238  -38.3754   20.4296 H       1  LIG   0.0981   0.1000 
29    C14      2.9380  -39.8900   21.8010 C.3     1  LIG  -0.1181  -0.2000 
30    H11      3.8890  -40.1268   21.3997 H       1  LIG   0.0732   0.1000 
31    H12      3.0430  -39.6129   22.8177 H       1  LIG   0.0789   0.1000 
32    C15      1.6390  -40.0610   21.0880 C.3     1  LIG  -0.1196  -0.2000 
33    H13      0.6832  -39.9283   21.5242 H       1  LIG   0.0807   0.1000 
34    H14      1.5292  -40.4423   20.1061 H       1  LIG   0.0733   0.1000 
@<TRIPOS>BOND
1     2     1     ar
2     3     2     1
3     4     2     ar
4     5     4     1
5     6     4     ar
6     7     6     ar
7     8     7     1
8     9     8     1
9     10    8     1
10    11    10    1
11    12    11    ar
12    13    12    1
13    14    12    ar
14    15    14    1
15    16    14    ar
16    17    16    1
17    18    16    ar
18    19    11    ar
19    19    18    ar
20    20    19    1
21    21    1     ar
22    21    7     ar
23    21    20    1
24    22    6     1
25    23    22    1
26    24    22    1
27    25    22    1
28    26    10    2
29    27    20    1
30    28    27    1
31    29    27    1
32    30    29    1
33    31    29    1
34    32    27    1
35    32    29    1
36    33    32    1
37    34    32    1
@<TRIPOS>SUBSTRUCTURE
1   LIG    1    
 
########## Name        : 1VRT.lig
########## Description : AM1BCC_CHARGES =  -0.0002 ORIGINAL_CHARGES =  -0.0000

@<TRIPOS>MOLECULE
1VRT.lig
34    37    1     0     0    
SMALL
USER_CHARGES
@<TRIPOS>ATOM
1     N1       4.0540  -36.9310   22.2210 N.ar    1  LIG  -0.6650  -0.6200 
2     C1       4.9660  -36.2380   22.9390 C.ar    1  LIG   0.3947   0.1600 
3     H1       6.0082  -36.2811   22.6707 H       1  LIG   0.0281   0.1500 
4     C2       4.6240  -35.4500   24.0360 C.ar    1  LIG  -0.2334  -0.1500 
5     H2       5.3884  -34.9151   24.5740 H       1  LIG   0.1480   0.1500 
6     C3       3.3050  -35.3690   24.4150 C.ar    1  LIG  -0.0698  -0.1435 
7     C4       2.3460  -36.0770   23.6860 C.ar    1  LIG  -0.0398   0.1170 
8     N2       0.9890  -36.0280   24.1030 N.am    1  LIG  -0.4596  -0.5470 
9     H3       0.7643  -35.9928   25.0860 H       1  LIG   0.3311   0.3700 
10    C5      -0.1450  -36.0180   23.4080 C.2     1  LIG   0.7361   0.5438 
11    C6      -0.1190  -36.0770   21.8860 C.ar    1  LIG  -0.2550   0.0862 
12    C7      -1.1230  -35.3990   21.1890 C.ar    1  LIG  -0.0321  -0.1500 
13    H4      -1.7552  -34.6955   21.7041 H       1  LIG   0.1623   0.1500 
14    C8      -1.2960  -35.6300   19.8690 C.ar    1  LIG  -0.2723  -0.1500 
15    H5      -2.0662  -35.1073   19.3273 H       1  LIG   0.1522   0.1500 
16    C9      -0.4670  -36.5450   19.2400 C.ar    1  LIG   0.4373   0.1600 
17    H6      -0.5947  -36.7554   18.1915 H       1  LIG   0.0280   0.1500 
18    N3       0.5220  -37.2120   19.8740 N.ar    1  LIG  -0.6893  -0.6200 
19    C10      0.7040  -36.9790   21.1800 C.ar    1  LIG   0.6480   0.4100 
20    N4       1.7670  -37.6730   21.8260 N.pl3   1  LIG  -0.6924  -0.3690 
21    C11      2.7540  -36.8570   22.5840 C.ar    1  LIG   0.5805   0.4100 
22    C12      2.9040  -34.5090   25.6010 C.3     1  LIG  -0.0620   0.1435 
23    H7       2.2235  -33.7630   25.2820 H       1  LIG   0.0570   0.0000 
24    H8       2.4436  -35.1154   26.3371 H       1  LIG   0.0495   0.0000 
25    H9       3.7654  -34.0491   26.0108 H       1  LIG   0.0519   0.0000 
26    O1      -1.2400  -35.9060   23.9770 O.2     1  LIG  -0.6361  -0.5700 
27    C13      2.3440  -38.7570   21.0360 C.3     1  LIG   0.1354   0.0690 
28    H10      3.1238  -38.3754   20.4296 H       1  LIG   0.0981   0.1000 
29    C14      2.9380  -39.8900   21.8010 C.3     1  LIG  -0.1181  -0.2000 
30    H11      3.8890  -40.1268   21.3997 H       1  LIG   0.0732   0.1000 
31    H12      3.0430  -39.6129   22.8177 H       1  LIG   0.0789   0.1000 
32    C15      1.6390  -40.0610   21.0880 C.3     1  LIG  -0.1196  -0.2000 
33    H13      0.6832  -39.9283   21.5242 H       1  LIG   0.0807   0.1000 
34    H14      1.5292  -40.4423   20.1061 H       1  LIG   0.0733   0.1000 
@<TRIPOS>BOND
1     2     1     ar
2     3     2     1
3     4     2     ar
4     5     4     1
5     6     4     ar
6     7     6     ar
7     8     7     1
8     9     8     1
9     10    8     1
10    11    10    1
11    12    11    ar
12    13    12    1
13    14    12    ar
14    15    14    1
15    16    14    ar
16    17    16    1
17    18    16    ar
18    19    11    ar
19    19    18    ar
20    20    19    1
21    21    1     ar
22    21    7     ar
23    21    20    1
24    22    6     1
25    23    22    1
26    24    22    1
27    25    22    1
28    26    10    2
29    27    20    1
30    28    27    1
31    29    27    1
32    30    29    1
33    31    29    1
34    32    27    1
35    32    29    1
36    33    32    1
37    34    32    1
@<TRIPOS>SUBSTRUCTURE
1   LIG    1    
 
########## Name        : 1VRT.lig
########## Description : AM1BCC_CHARGES =  -0.0002 ORIGINAL_CHARGES =  -0.0000

@<TRIPOS>MOLECULE
1VRT.lig
34    37    1     0     0    
SMALL
USER_CHARGES
@<TRIPOS>ATOM
1     N1       4.0540  -36.9310   22.2210 N.ar    1  LIG  -0.6650  -0.6200 
2     C1       4.9660  -36.2380   22.9390 C.ar    1  LIG   0.3947   0.1600 
3     H1       6.0082  -36.2811   22.6707 H       1  LIG   0.0281   0.1500 
4     C2       4.6240  -35.4500   24.0360 C.ar    1  LIG  -0.2334  -0.1500 
5     H2       5.3884  -34.9151   24.5740 H       1  LIG   0.1480   0.1500 
6     C3       3.3050  -35.3690   24.4150 C.ar    1  LIG  -0.0698  -0.1435 
7     C4       2.3460  -36.0770   23.6860 C.ar    1  LIG  -0.0398   0.1170 
8     N2       0.9890  -36.0280   24.1030 N.am    1  LIG  -0.4596  -0.5470 
9     H3       0.7643  -35.9928   25.0860 H       1  LIG   0.3311   0.3700 
10    C5      -0.1450  -36.0180   23.4080 C.2     1  LIG   0.7361   0.5438 
11    C6      -0.1190  -36.0770   21.8860 C.ar    1  LIG  -0.2550   0.0862 
12    C7      -1.1230  -35.3990   21.1890 C.ar    1  LIG  -0.0321  -0.1500 
13    H4      -1.7552  -34.6955   21.7041 H       1  LIG   0.1623   0.1500 
14    C8      -1.2960  -35.6300   19.8690 C.ar    1  LIG  -0.2723  -0.1500 
15    H5      -2.0662  -35.1073   19.3273 H       1  LIG   0.1522   0.1500 
16    C9      -0.4670  -36.5450   19.2400 C.ar    1  LIG   0.4373   0.1600 
17    H6      -0.5947  -36.7554   18.1915 H       1  LIG   0.0280   0.1500 
18    N3       0.5220  -37.2120   19.8740 N.ar    1  LIG  -0.6893  -0.6200 
19    C10      0.7040  -36.9790   21.1800 C.ar    1  LIG   0.6480   0.4100 
20    N4       1.7670  -37.6730   21.8260 N.pl3   1  LIG  -0.6924  -0.3690 
21    C11      2.7540  -36.8570   22.5840 C.ar    1  LIG   0.5805   0.4100 
22    C12      2.9040  -34.5090   25.6010 C.3     1  LIG  -0.0620   0.1435 
23    H7       2.2235  -33.7630   25.2820 H       1  LIG   0.0570   0.0000 
24    H8       2.4436  -35.1154   26.3371 H       1  LIG   0.0495   0.0000 
25    H9       3.7654  -34.0491   26.0108 H       1  LIG   0.0519   0.0000 
26    O1      -1.2400  -35.9060   23.9770 O.2     1  LIG  -0.6361  -0.5700 
27    C13      2.3440  -38.7570   21.0360 C.3     1  LIG   0.1354   0.0690 
28    H10      3.1238  -38.3754   20.4296 H       1  LIG   0.0981   0.1000 
29    C14      2.9380  -39.8900   21.8010 C.3     1  LIG  -0.1181  -0.2000 
30    H11      3.8890  -40.1268   21.3997 H       1  LIG   0.0732   0.1000 
31    H12      3.0430  -39.6129   22.8177 H       1  LIG   0.0789   0.1000 
32    C15      1.6390  -40.0610   21.0880 C.3     1  LIG  -0.1196  -0.2000 
33    H13      0.6832  -39.9283   21.5242 H       1  LIG   0.0807   0.1000 
34    H14      1.5292  -40.4423   20.1061 H       1  LIG   0.0733   0.1000 
@<TRIPOS>BOND
1     2     1     ar
2     3     2     1
3     4     2     ar
4     5     4     1
5     6     4     ar
6     7     6     ar
7     8     7     1
8     9     8     1
9     10    8     1
10    11    10    1
11    12    11    ar
12    13    12    1
13    14    12    ar
14    15    14    1
15    16    14    ar
16    17    16    1
17    18    16    ar
18    19    11    ar
19    19    18    ar
20    20    19    1
21    21    1     ar
22    21    7     ar
23    21    20    1
24    22    6     1
25    23    22    1
26    24    22    1
27    25    22    1
28    26    10    2
29    27    20    1
30    28    27    1
31    29    27    1
32    30    29    1
33    31    29    1
34    32    27    1
35    32    29    1
36    33    32    1
37    34    32    1
@<TRIPOS>SUBSTRUCTURE
1   LIG    1    
 
########## Name        : 1VRT.lig
########## Description : AM1BCC_CHARGES =  -0.0002 ORIGINAL_CHARGES =  -0.0000

@<TRIPOS>MOLECULE
1VRT.lig
34    37    1     0     0    
SMALL
USER_CHARGES
@<TRIPOS>ATOM
1     N1       4.0540  -36.9310   22.2210 N.ar    1  LIG  -0.6650  -0.6200 
2     C1       4.9660  -36.2380   22.9390 C.ar    1  LIG   0.3947   0.1600 
3     H1       6.0082  -36.2811   22.6707 H       1  LIG   0.0281   0.1500 
4     C2       4.6240  -35.4500   24.0360 C.ar    1  LIG  -0.2334  -0.1500 
5     H2       5.3884  -34.9151   24.5740 H       1  LIG   0.1480   0.1500 
6     C3       3.3050  -35.3690   24.4150 C.ar    1  LIG  -0.0698  -0.1435 
7     C4       2.3460  -36.0770   23.6860 C.ar    1  LIG  -0.0398   0.1170 
8     N2       0.9890  -36.0280   24.1030 N.am    1  LIG  -0.4596  -0.5470 
9     H3       0.7643  -35.9928   25.0860 H       1  LIG   0.3311   0.3700 
10    C5      -0.1450  -36.0180   23.4080 C.2     1  LIG   0.7361   0.5438 
11    C6      -0.1190  -36.0770   21.8860 C.ar    1  LIG  -0.2550   0.0862 
12    C7      -1.1230  -35.3990   21.1890 C.ar    1  LIG  -0.0321  -0.1500 
13    H4      -1.7552  -34.6955   21.7041 H       1  LIG   0.1623   0.1500 
14    C8      -1.2960  -35.6300   19.8690 C.ar    1  LIG  -0.2723  -0.1500 
15    H5      -2.0662  -35.1073   19.3273 H       1  LIG   0.1522   0.1500 
16    C9      -0.4670  -36.5450   19.2400 C.ar    1  LIG   0.4373   0.1600 
17    H6      -0.5947  -36.7554   18.1915 H       1  LIG   0.0280   0.1500 
18    N3       0.5220  -37.2120   19.8740 N.ar    1  LIG  -0.6893  -0.6200 
19    C10      0.7040  -36.9790   21.1800 C.ar    1  LIG   0.6480   0.4100 
20    N4       1.7670  -37.6730   21.8260 N.pl3   1  LIG  -0.6924  -0.3690 
21    C11      2.7540  -36.8570   22.5840 C.ar    1  LIG   0.5805   0.4100 
22    C12      2.9040  -34.5090   25.6010 C.3     1  LIG  -0.0620   0.1435 
23    H7       2.2235  -33.7630   25.2820 H       1  LIG   0.0570   0.0000 
24    H8       2.4436  -35.1154   26.3371 H       1  LIG   0.0495   0.0000 
25    H9       3.7654  -34.0491   26.0108 H       1  LIG   0.0519   0.0000 
26    O1      -1.2400  -35.9060   23.9770 O.2     1  LIG  -0.6361  -0.5700 
27    C13      2.3440  -38.7570   21.0360 C.3     1  LIG   0.1354   0.0690 
28    H10      3.1238  -38.3754   20.4296 H       1  LIG   0.0981   0.1000 
29    C14      2.9380  -39.8900   21.8010 C.3     1  LIG  -0.1181  -0.2000 
30    H11      3.8890  -40.1268   21.3997 H       1  LIG   0.0732   0.1000 
31    H12      3.0430  -39.6129   22.8177 H       1  LIG   0.0789   0.1000 
32    C15      1.6390  -40.0610   21.0880 C.3     1  LIG  -0.1196  -0.2000 
33    H13      0.6832  -39.9283   21.5242 H       1  LIG   0.0807   0.1000 
34    H14      1.5292  -40.4423   20.1061 H       1  LIG   0.0733   0.1000 
@<TRIPOS>BOND
1     2     1     ar
2     3     2     1
3     4     2     ar
4     5     4     1
5     6     4     ar
6     7     6     ar
7     8     7     1
8     9     8     1
9     10    8     1
10    11    10    1
11    12    11    ar
12    13    12    1
13    14    12    ar
14    15    14    1
15    16    14    ar
16    17    16    1
17    18    16    ar
18    19    11    ar
19    19    18    ar
20    20    19    1
21    21    1     ar
22    21    7     ar
23    21    20    1
24    22    6     1
25    23    22    1
26    24    22    1
27    25    22    1
28    26    10    2
29    27    20    1
30    28    27    1
31    29    27    1
32    30    29    1
33    31    29    1
34    32    27    1
35    32    29    1
36    33    32    1
37    34    32    1
@<TRIPOS>SUBSTRUCTURE
1   LIG    1    
 
########## Name        : 1VRT.lig
########## Description : AM1BCC_CHARGES =  -0.0002 ORIGINAL_CHARGES =  -0.0000

@<TRIPOS>MOLECULE
1VRT.lig
34    37    1     0     0    
SMALL
USER_CHARGES
@<TRIPOS>ATOM
1     N1       4.0540  -36.9310   22.2210 N.ar    1  LIG  -0.6650  -0.6200 
2     C1       4.9660  -36.2380   22.9390 C.ar    1  LIG   0.3947   0.1600 
3     H1       6.0082  -36.2811   22.6707 H       1  LIG   0.0281   0.1500 
4     C2       4.6240  -35.4500   24.0360 C.ar    1  LIG  -0.2334  -0.1500 
5     H2       5.3884  -34.9151   24.5740 H       1  LIG   0.1480   0.1500 
6     C3       3.3050  -35.3690   24.4150 C.ar    1  LIG  -0.0698  -0.1435 
7     C4       2.3460  -36.0770   23.6860 C.ar    1  LIG  -0.0398   0.1170 
8     N2       0.9890  -36.0280   24.1030 N.am    1  LIG  -0.4596  -0.5470 
9     H3       0.7643  -35.9928   25.0860 H       1  LIG   0.3311   0.3700 
10    C5      -0.1450  -36.0180   23.4080 C.2     1  LIG   0.7361   0.5438 
11    C6      -0.1190  -36.0770   21.8860 C.ar    1  LIG  -0.2550   0.0862 
12    C7      -1.1230  -35.3990   21.1890 C.ar    1  LIG  -0.0321  -0.1500 
13    H4      -1.7552  -34.6955   21.7041 H       1  LIG   0.1623   0.1500 
14    C8      -1.2960  -35.6300   19.8690 C.ar    1  LIG  -0.2723  -0.1500 
15    H5      -2.0662  -35.1073   19.3273 H       1  LIG   0.1522   0.1500 
16    C9      -0.4670  -36.5450   19.2400 C.ar    1  LIG   0.4373   0.1600 
17    H6      -0.5947  -36.7554   18.1915 H       1  LIG   0.0280   0.1500 
18    N3       0.5220  -37.2120   19.8740 N.ar    1  LIG  -0.6893  -0.6200 
19    C10      0.7040  -36.9790   21.1800 C.ar    1  LIG   0.6480   0.4100 
20    N4       1.7670  -37.6730   21.8260 N.pl3   1  LIG  -0.6924  -0.3690 
21    C11      2.7540  -36.8570   22.5840 C.ar    1  LIG   0.5805   0.4100 
22    C12      2.9040  -34.5090   25.6010 C.3     1  LIG  -0.0620   0.1435 
23    H7       2.2235  -33.7630   25.2820 H       1  LIG   0.0570   0.0000 
24    H8       2.4436  -35.1154   26.3371 H       1  LIG   0.0495   0.0000 
25    H9       3.7654  -34.0491   26.0108 H       1  LIG   0.0519   0.0000 
26    O1      -1.2400  -35.9060   23.9770 O.2     1  LIG  -0.6361  -0.5700 
27    C13      2.3440  -38.7570   21.0360 C.3     1  LIG   0.1354   0.0690 
28    H10      3.1238  -38.3754   20.4296 H       1  LIG   0.0981   0.1000 
29    C14      2.9380  -39.8900   21.8010 C.3     1  LIG  -0.1181  -0.2000 
30    H11      3.8890  -40.1268   21.3997 H       1  LIG   0.0732   0.1000 
31    H12      3.0430  -39.6129   22.8177 H       1  LIG   0.0789   0.1000 
32    C15      1.6390  -40.0610   21.0880 C.3     1  LIG  -0.1196  -0.2000 
33    H13      0.6832  -39.9283   21.5242 H       1  LIG   0.0807   0.1000 
34    H14      1.5292  -40.4423   20.1061 H       1  LIG   0.0733   0.1000 
@<TRIPOS>BOND
1     2     1     ar
2     3     2     1
3     4     2     ar
4     5     4     1
5     6     4     ar
6     7     6     ar
7     8     7     1
8     9     8     1
9     10    8     1
10    11    10    1
11    12    11    ar
12    13    12    1
13    14    12    ar
14    15    14    1
15    16    14    ar
16    17    16    1
17    18    16    ar
18    19    11    ar
19    19    18    ar
20    20    19    1
21    21    1     ar
22    21    7     ar
23    21    20    1
24    22    6     1
25    23    22    1
26    24    22    1
27    25    22    1
28    26    10    2
29    27    20    1
30    28    27    1
31    29    27    1
32    30    29    1
33    31    29    1
34    32    27    1
35    32    29    1
36    33    32    1
37    34    32    1
@<TRIPOS>SUBSTRUCTURE
1   LIG    1    
 
########## Name        : 1VRT.lig
########## Description : AM1BCC_CHARGES =  -0.0002 ORIGINAL_CHARGES =  -0.0000

@<TRIPOS>MOLECULE
1VRT.lig
34    37    1     0     0    
SMALL
USER_CHARGES
@<TRIPOS>ATOM
1     N1       4.0540  -36.9310   22.2210 N.ar    1  LIG  -0.6650  -0.6200 
2     C1       4.9660  -36.2380   22.9390 C.ar    1  LIG   0.3947   0.1600 
3     H1       6.0082  -36.2811   22.6707 H       1  LIG   0.0281   0.1500 
4     C2       4.6240  -35.4500   24.0360 C.ar    1  LIG  -0.2334  -0.1500 
5     H2       5.3884  -34.9151   24.5740 H       1  LIG   0.1480   0.1500 
6     C3       3.3050  -35.3690   24.4150 C.ar    1  LIG  -0.0698  -0.1435 
7     C4       2.3460  -36.0770   23.6860 C.ar    1  LIG  -0.0398   0.1170 
8     N2       0.9890  -36.0280   24.1030 N.am    1  LIG  -0.4596  -0.5470 
9     H3       0.7643  -35.9928   25.0860 H       1  LIG   0.3311   0.3700 
10    C5      -0.1450  -36.0180   23.4080 C.2     1  LIG   0.7361   0.5438 
11    C6      -0.1190  -36.0770   21.8860 C.ar    1  LIG  -0.2550   0.0862 
12    C7      -1.1230  -35.3990   21.1890 C.ar    1  LIG  -0.0321  -0.1500 
13    H4      -1.7552  -34.6955   21.7041 H       1  LIG   0.1623   0.1500 
14    C8      -1.2960  -35.6300   19.8690 C.ar    1  LIG  -0.2723  -0.1500 
15    H5      -2.0662  -35.1073   19.3273 H       1  LIG   0.1522   0.1500 
16    C9      -0.4670  -36.5450   19.2400 C.ar    1  LIG   0.4373   0.1600 
17    H6      -0.5947  -36.7554   18.1915 H       1  LIG   0.0280   0.1500 
18    N3       0.5220  -37.2120   19.8740 N.ar    1  LIG  -0.6893  -0.6200 
19    C10      0.7040  -36.9790   21.1800 C.ar    1  LIG   0.6480   0.4100 
20    N4       1.7670  -37.6730   21.8260 N.pl3   1  LIG  -0.6924  -0.3690 
21    C11      2.7540  -36.8570   22.5840 C.ar    1  LIG   0.5805   0.4100 
22    C12      2.9040  -34.5090   25.6010 C.3     1  LIG  -0.0620   0.1435 
23    H7       2.2235  -33.7630   25.2820 H       1  LIG   0.0570   0.0000 
24    H8       2.4436  -35.1154   26.3371 H       1  LIG   0.0495   0.0000 
25    H9       3.7654  -34.0491   26.0108 H       1  LIG   0.0519   0.0000 
26    O1      -1.2400  -35.9060   23.9770 O.2     1  LIG  -0.6361  -0.5700 
27    C13      2.3440  -38.7570   21.0360 C.3     1  LIG   0.1354   0.0690 
28    H10      3.1238  -38.3754   20.4296 H       1  LIG   0.0981   0.1000 
29    C14      2.9380  -39.8900   21.8010 C.3     1  LIG  -0.1181  -0.2000 
30    H11      3.8890  -40.1268   21.3997 H       1  LIG   0.0732   0.1000 
31    H12      3.0430  -39.6129   22.8177 H       1  LIG   0.0789   0.1000 
32    C15      1.6390  -40.0610   21.0880 C.3     1  LIG  -0.1196  -0.2000 
33    H13      0.6832  -39.9283   21.5242 H       1  LIG   0.0807   0.1000 
34    H14      1.5292  -40.4423   20.1061 H       1  LIG   0.0733   0.1000 
@<TRIPOS>BOND
1     2     1     ar
2     3     2     1
3     4     2     ar
4     5     4     1
5     6     4     ar
6     7     6     ar
7     8     7     1
8     9     8     1
9     10    8     1
10    11    10    1
11    12    11    ar
12    13    12    1
13    14    12    ar
14    15    14    1
15    16    14    ar
16    17    16    1
17    18    16    ar
18    19    11    ar
19    19    18    ar
20    20    19    1
21    21    1     ar
22    21    7     ar
23    21    20    1
24    22    6     1
25    23    22    1
26    24    22    1
27    25    22    1
28    26    10    2
29    27    20    1
30    28    27    1
31    29    27    1
32    30    29    1
33    31    29    1
34    32    27    1
35    32    29    1
36    33    32    1
37    34    32    1
@<TRIPOS>SUBSTRUCTURE
1   LIG    1    
 
########## Name        : 1VRT.lig
########## Description : AM1BCC_CHARGES =  -0.0002 ORIGINAL_CHARGES =  -0.0000

@<TRIPOS>MOLECULE
1VRT.lig
34    37    1     0     0    
SMALL
USER_CHARGES
@<TRIPOS>ATOM
1     N1       4.0540  -36.9310   22.2210 N.ar    1  LIG  -0.6650  -0.6200 
2     C1       4.9660  -36.2380   22.9390 C.ar    1  LIG   0.3947   0.1600 
3     H1       6.0082  -36.2811   22.6707 H       1  LIG   0.0281   0.1500 
4     C2       4.6240  -35.4500   24.0360 C.ar    1  LIG  -0.2334  -0.1500 
5     H2       5.3884  -34.9151   24.5740 H       1  LIG   0.1480   0.1500 
6     C3       3.3050  -35.3690   24.4150 C.ar    1  LIG  -0.0698  -0.1435 
7     C4       2.3460  -36.0770   23.6860 C.ar    1  LIG  -0.0398   0.1170 
8     N2       0.9890  -36.0280   24.1030 N.am    1  LIG  -0.4596  -0.5470 
9     H3       0.7643  -35.9928   25.0860 H       1  LIG   0.3311   0.3700 
10    C5      -0.1450  -36.0180   23.4080 C.2     1  LIG   0.7361   0.5438 
11    C6      -0.1190  -36.0770   21.8860 C.ar    1  LIG  -0.2550   0.0862 
12    C7      -1.1230  -35.3990   21.1890 C.ar    1  LIG  -0.0321  -0.1500 
13    H4      -1.7552  -34.6955   21.7041 H       1  LIG   0.1623   0.1500 
14    C8      -1.2960  -35.6300   19.8690 C.ar    1  LIG  -0.2723  -0.1500 
15    H5      -2.0662  -35.1073   19.3273 H       1  LIG   0.1522   0.1500 
16    C9      -0.4670  -36.5450   19.2400 C.ar    1  LIG   0.4373   0.1600 
17    H6      -0.5947  -36.7554   18.1915 H       1  LIG   0.0280   0.1500 
18    N3       0.5220  -37.2120   19.8740 N.ar    1  LIG  -0.6893  -0.6200 
19    C10      0.7040  -36.9790   21.1800 C.ar    1  LIG   0.6480   0.4100 
20    N4       1.7670  -37.6730   21.8260 N.pl3   1  LIG  -0.6924  -0.3690 
21    C11      2.7540  -36.8570   22.5840 C.ar    1  LIG   0.5805   0.4100 
22    C12      2.9040  -34.5090   25.6010 C.3     1  LIG  -0.0620   0.1435 
23    H7       2.2235  -33.7630   25.2820 H       1  LIG   0.0570   0.0000 
24    H8       2.4436  -35.1154   26.3371 H       1  LIG   0.0495   0.0000 
25    H9       3.7654  -34.0491   26.0108 H       1  LIG   0.0519   0.0000 
26    O1      -1.2400  -35.9060   23.9770 O.2     1  LIG  -0.6361  -0.5700 
27    C13      2.3440  -38.7570   21.0360 C.3     1  LIG   0.1354   0.0690 
28    H10      3.1238  -38.3754   20.4296 H       1  LIG   0.0981   0.1000 
29    C14      2.9380  -39.8900   21.8010 C.3     1  LIG  -0.1181  -0.2000 
30    H11      3.8890  -40.1268   21.3997 H       1  LIG   0.0732   0.1000 
31    H12      3.0430  -39.6129   22.8177 H       1  LIG   0.0789   0.1000 
32    C15      1.6390  -40.0610   21.0880 C.3     1  LIG  -0.1196  -0.2000 
33    H13      0.6832  -39.9283   21.5242 H       1  LIG   0.0807   0.1000 
34    H14      1.5292  -40.4423   20.1061 H       1  LIG   0.0733   0.1000 
@<TRIPOS>BOND
1     2     1     ar
2     3     2     1
3     4     2     ar
4     5     4     1
5     6     4     ar
6     7     6     ar
7     8     7     1
8     9     8     1
9     10    8     1
10    11    10    1
11    12    11    ar
12    13    12    1
13    14    12    ar
14    15    14    1
15    16    14    ar
16    17    16    1
17    18    16    ar
18    19    11    ar
19    19    18    ar
20    20    19    1
21    21    1     ar
22    21    7     ar
23    21    20    1
24    22    6     1
25    23    22    1
26    24    22    1
27    25    22    1
28    26    10    2
29    27    20    1
30    28    27    1
31    29    27    1
32    30    29    1
33    31    29    1
34    32    27    1
35    32    29    1
36    33    32    1
37    34    32    1
@<TRIPOS>SUBSTRUCTURE
1   LIG    1    
 
########## Name        : 1VRT.lig
########## Description : AM1BCC_CHARGES =  -0.0002 ORIGINAL_CHARGES =  -0.0000

@<TRIPOS>MOLECULE
1VRT.lig
34    37    1     0     0    
SMALL
USER_CHARGES
@<TRIPOS>ATOM
1     N1       4.0540  -36.9310   22.2210 N.ar    1  LIG  -0.6650  -0.6200 
2     C1       4.9660  -36.2380   22.9390 C.ar    1  LIG   0.3947   0.1600 
3     H1       6.0082  -36.2811   22.6707 H       1  LIG   0.0281   0.1500 
4     C2       4.6240  -35.4500   24.0360 C.ar    1  LIG  -0.2334  -0.1500 
5     H2       5.3884  -34.9151   24.5740 H       1  LIG   0.1480   0.1500 
6     C3       3.3050  -35.3690   24.4150 C.ar    1  LIG  -0.0698  -0.1435 
7     C4       2.3460  -36.0770   23.6860 C.ar    1  LIG  -0.0398   0.1170 
8     N2       0.9890  -36.0280   24.1030 N.am    1  LIG  -0.4596  -0.5470 
9     H3       0.7643  -35.9928   25.0860 H       1  LIG   0.3311   0.3700 
10    C5      -0.1450  -36.0180   23.4080 C.2     1  LIG   0.7361   0.5438 
11    C6      -0.1190  -36.0770   21.8860 C.ar    1  LIG  -0.2550   0.0862 
12    C7      -1.1230  -35.3990   21.1890 C.ar    1  LIG  -0.0321  -0.1500 
13    H4      -1.7552  -34.6955   21.7041 H       1  LIG   0.1623   0.1500 
14    C8      -1.2960  -35.6300   19.8690 C.ar    1  LIG  -0.2723  -0.1500 
15    H5      -2.0662  -35.1073   19.3273 H       1  LIG   0.1522   0.1500 
16    C9      -0.4670  -36.5450   19.2400 C.ar    1  LIG   0.4373   0.1600 
17    H6      -0.5947  -36.7554   18.1915 H       1  LIG   0.0280   0.1500 
18    N3       0.5220  -37.2120   19.8740 N.ar    1  LIG  -0.6893  -0.6200 
19    C10      0.7040  -36.9790   21.1800 C.ar    1  LIG   0.6480   0.4100 
20    N4       1.7670  -37.6730   21.8260 N.pl3   1  LIG  -0.6924  -0.3690 
21    C11      2.7540  -36.8570   22.5840 C.ar    1  LIG   0.5805   0.4100 
22    C12      2.9040  -34.5090   25.6010 C.3     1  LIG  -0.0620   0.1435 
23    H7       2.2235  -33.7630   25.2820 H       1  LIG   0.0570   0.0000 
24    H8       2.4436  -35.1154   26.3371 H       1  LIG   0.0495   0.0000 
25    H9       3.7654  -34.0491   26.0108 H       1  LIG   0.0519   0.0000 
26    O1      -1.2400  -35.9060   23.9770 O.2     1  LIG  -0.6361  -0.5700 
27    C13      2.3440  -38.7570   21.0360 C.3     1  LIG   0.1354   0.0690 
28    H10      3.1238  -38.3754   20.4296 H       1  LIG   0.0981   0.1000 
29    C14      2.9380  -39.8900   21.8010 C.3     1  LIG  -0.1181  -0.2000 
30    H11      3.8890  -40.1268   21.3997 H       1  LIG   0.0732   0.1000 
31    H12      3.0430  -39.6129   22.8177 H       1  LIG   0.0789   0.1000 
32    C15      1.6390  -40.0610   21.0880 C.3     1  LIG  -0.1196  -0.2000 
33    H13      0.6832  -39.9283   21.5242 H       1  LIG   0.0807   0.1000 
34    H14      1.5292  -40.4423   20.1061 H       1  LIG   0.0733   0.1000 
@<TRIPOS>BOND
1     2     1     ar
2     3     2     1
3     4     2     ar
4     5     4     1
5     6     4     ar
6     7     6     ar
7     8     7     1
8     9     8     1
9     10    8     1
10    11    10    1
11    12    11    ar
12    13    12    1
13    14    12    ar
14    15    14    1
15    16    14    ar
16    17    16    1
17    18    16    ar
18    19    11    ar
19    19    18    ar
20    20    19    1
21    21    1     ar
22    21    7     ar
23    21    20    1
24    22    6     1
25    23    22    1
26    24    22    1
27    25    22    1
28    26    10    2
29    27    20    1
30    28    27    1
31    29    27    1
32    30    29    1
33    31    29    1
34    32    27    1
35    32    29    1
36    33    32    1
37    34    32    1
@<TRIPOS>SUBSTRUCTURE
1   LIG    1    
 
########## Name        : 1VRT.lig
########## Description : AM1BCC_CHARGES =  -0.0002 ORIGINAL_CHARGES =  -0.0000

@<TRIPOS>MOLECULE
1VRT.lig
34    37    1     0     0    
SMALL
USER_CHARGES
@<TRIPOS>ATOM
1     N1       4.0540  -36.9310   22.2210 N.ar    1  LIG  -0.6650  -0.6200 
2     C1       4.9660  -36.2380   22.9390 C.ar    1  LIG   0.3947   0.1600 
3     H1       6.0082  -36.2811   22.6707 H       1  LIG   0.0281   0.1500 
4     C2       4.6240  -35.4500   24.0360 C.ar    1  LIG  -0.2334  -0.1500 
5     H2       5.3884  -34.9151   24.5740 H       1  LIG   0.1480   0.1500 
6     C3       3.3050  -35.3690   24.4150 C.ar    1  LIG  -0.0698  -0.1435 
7     C4       2.3460  -36.0770   23.6860 C.ar    1  LIG  -0.0398   0.1170 
8     N2       0.9890  -36.0280   24.1030 N.am    1  LIG  -0.4596  -0.5470 
9     H3       0.7643  -35.9928   25.0860 H       1  LIG   0.3311   0.3700 
10    C5      -0.1450  -36.0180   23.4080 C.2     1  LIG   0.7361   0.5438 
11    C6      -0.1190  -36.0770   21.8860 C.ar    1  LIG  -0.2550   0.0862 
12    C7      -1.1230  -35.3990   21.1890 C.ar    1  LIG  -0.0321  -0.1500 
13    H4      -1.7552  -34.6955   21.7041 H       1  LIG   0.1623   0.1500 
14    C8      -1.2960  -35.6300   19.8690 C.ar    1  LIG  -0.2723  -0.1500 
15    H5      -2.0662  -35.1073   19.3273 H       1  LIG   0.1522   0.1500 
16    C9      -0.4670  -36.5450   19.2400 C.ar    1  LIG   0.4373   0.1600 
17    H6      -0.5947  -36.7554   18.1915 H       1  LIG   0.0280   0.1500 
18    N3       0.5220  -37.2120   19.8740 N.ar    1  LIG  -0.6893  -0.6200 
19    C10      0.7040  -36.9790   21.1800 C.ar    1  LIG   0.6480   0.4100 
20    N4       1.7670  -37.6730   21.8260 N.pl3   1  LIG  -0.6924  -0.3690 
21    C11      2.7540  -36.8570   22.5840 C.ar    1  LIG   0.5805   0.4100 
22    C12      2.9040  -34.5090   25.6010 C.3     1  LIG  -0.0620   0.1435 
23    H7       2.2235  -33.7630   25.2820 H       1  LIG   0.0570   0.0000 
24    H8       2.4436  -35.1154   26.3371 H       1  LIG   0.0495   0.0000 
25    H9       3.7654  -34.0491   26.0108 H       1  LIG   0.0519   0.0000 
26    O1      -1.2400  -35.9060   23.9770 O.2     1  LIG  -0.6361  -0.5700 
27    C13      2.3440  -38.7570   21.0360 C.3     1  LIG   0.1354   0.0690 
28    H10      3.1238  -38.3754   20.4296 H       1  LIG   0.0981   0.1000 
29    C14      2.9380  -39.8900   21.8010 C.3     1  LIG  -0.1181  -0.2000 
30    H11      3.8890  -40.1268   21.3997 H       1  LIG   0.0732   0.1000 
31    H12      3.0430  -39.6129   22.8177 H       1  LIG   0.0789   0.1000 
32    C15      1.6390  -40.0610   21.0880 C.3     1  LIG  -0.1196  -0.2000 
33    H13      0.6832  -39.9283   21.5242 H       1  LIG   0.0807   0.1000 
34    H14      1.5292  -40.4423   20.1061 H       1  LIG   0.0733   0.1000 
@<TRIPOS>BOND
1     2     1     ar
2     3     2     1
3     4     2     ar
4     5     4     1
5     6     4     ar
6     7     6     ar
7     8     7     1
8     9     8     1
9     10    8     1
10    11    10    1
11    12    11    ar
12    13    12    1
13    14    12    ar
14    15    14    1
15    16    14    ar
16    17    16    1
17    18    16    ar
18    19    11    ar
19    19    18    ar
20    20    19    1
21    21    1     ar
22    21    7     ar
23    21    20    1
24    22    6     1
25    23    22    1
26    24    22    1
27    25    22    1
28    26    10    2
29    27    20    1
30    28    27    1
31    29    27    1
32    30    29    1
33    31    29    1
34    32    27    1
35    32    29    1
36    33    32    1
37    34    32    1
@<TRIPOS>SUBSTRUCTURE
1   LIG    1    
 
########## Name        : 1VRT.lig
########## Description : AM1BCC_CHARGES =  -0.0002 ORIGINAL_CHARGES =  -0.0000

@<TRIPOS>MOLECULE
1VRT.lig
34    37    1     0     0    
SMALL
USER_CHARGES
@<TRIPOS>ATOM
1     N1       4.0540  -36.9310   22.2210 N.ar    1  LIG  -0.6650  -0.6200 
2     C1       4.9660  -36.2380   22.9390 C.ar    1  LIG   0.3947   0.1600 
3     H1       6.0082  -36.2811   22.6707 H       1  LIG   0.0281   0.1500 
4     C2       4.6240  -35.4500   24.0360 C.ar    1  LIG  -0.2334  -0.1500 
5     H2       5.3884  -34.9151   24.5740 H       1  LIG   0.1480   0.1500 
6     C3       3.3050  -35.3690   24.4150 C.ar    1  LIG  -0.0698  -0.1435 
7     C4       2.3460  -36.0770   23.6860 C.ar    1  LIG  -0.0398   0.1170 
8     N2       0.9890  -36.0280   24.1030 N.am    1  LIG  -0.4596  -0.5470 
9     H3       0.7643  -35.9928   25.0860 H       1  LIG   0.3311   0.3700 
10    C5      -0.1450  -36.0180   23.4080 C.2     1  LIG   0.7361   0.5438 
11    C6      -0.1190  -36.0770   21.8860 C.ar    1  LIG  -0.2550   0.0862 
12    C7      -1.1230  -35.3990   21.1890 C.ar    1  LIG  -0.0321  -0.1500 
13    H4      -1.7552  -34.6955   21.7041 H       1  LIG   0.1623   0.1500 
14    C8      -1.2960  -35.6300   19.8690 C.ar    1  LIG  -0.2723  -0.1500 
15    H5      -2.0662  -35.1073   19.3273 H       1  LIG   0.1522   0.1500 
16    C9      -0.4670  -36.5450   19.2400 C.ar    1  LIG   0.4373   0.1600 
17    H6      -0.5947  -36.7554   18.1915 H       1  LIG   0.0280   0.1500 
18    N3       0.5220  -37.2120   19.8740 N.ar    1  LIG  -0.6893  -0.6200 
19    C10      0.7040  -36.9790   21.1800 C.ar    1  LIG   0.6480   0.4100 
20    N4       1.7670  -37.6730   21.8260 N.pl3   1  LIG  -0.6924  -0.3690 
21    C11      2.7540  -36.8570   22.5840 C.ar    1  LIG   0.5805   0.4100 
22    C12      2.9040  -34.5090   25.6010 C.3     1  LIG  -0.0620   0.1435 
23    H7       2.2235  -33.7630   25.2820 H       1  LIG   0.0570   0.0000 
24    H8       2.4436  -35.1154   26.3371 H       1  LIG   0.0495   0.0000 
25    H9       3.7654  -34.0491   26.0108 H       1  LIG   0.0519   0.0000 
26    O1      -1.2400  -35.9060   23.9770 O.2     1  LIG  -0.6361  -0.5700 
27    C13      2.3440  -38.7570   21.0360 C.3     1  LIG   0.1354   0.0690 
28    H10      3.1238  -38.3754   20.4296 H       1  LIG   0.0981   0.1000 
29    C14      2.9380  -39.8900   21.8010 C.3     1  LIG  -0.1181  -0.2000 
30    H11      3.8890  -40.1268   21.3997 H       1  LIG   0.0732   0.1000 
31    H12      3.0430  -39.6129   22.8177 H       1  LIG   0.0789   0.1000 
32    C15      1.6390  -40.0610   21.0880 C.3     1  LIG  -0.1196  -0.2000 
33    H13      0.6832  -39.9283   21.5242 H       1  LIG   0.0807   0.1000 
34    H14      1.5292  -40.4423   20.1061 H       1  LIG   0.0733   0.1000 
@<TRIPOS>BOND
1     2     1     ar
2     3     2     1
3     4     2     ar
4     5     4     1
5     6     4     ar
6     7     6     ar
7     8     7     1
8     9     8     1
9     10    8     1
10    11    10    1
11    12    11    ar
12    13    12    1
13    14    12    ar
14    15    14    1
15    16    14    ar
16    17    16    1
17    18    16    ar
18    19    11    ar
19    19    18    ar
20    20    19    1
21    21    1     ar
22    21    7     ar
23    21    20    1
24    22    6     1
25    23    22    1
26    24    22    1
27    25    22    1
28    26    10    2
29    27    20    1
30    28    27    1
31    29    27    1
32    30    29    1
33    31    29    1
34    32    27    1
35    32    29    1
36    33    32    1
37    34    32    1
@<TRIPOS>SUBSTRUCTURE
1   LIG    1    
 
########## Name        : 1VRT.lig
########## Description : AM1BCC_CHARGES =  -0.0002 ORIGINAL_CHARGES =  -0.0000

@<TRIPOS>MOLECULE
1VRT.lig
34    37    1     0     0    
SMALL
USER_CHARGES
@<TRIPOS>ATOM
1     N1       4.0540  -36.9310   22.2210 N.ar    1  LIG  -0.6650  -0.6200 
2     C1       4.9660  -36.2380   22.9390 C.ar    1  LIG   0.3947   0.1600 
3     H1       6.0082  -36.2811   22.6707 H       1  LIG   0.0281   0.1500 
4     C2       4.6240  -35.4500   24.0360 C.ar    1  LIG  -0.2334  -0.1500 
5     H2       5.3884  -34.9151   24.5740 H       1  LIG   0.1480   0.1500 
6     C3       3.3050  -35.3690   24.4150 C.ar    1  LIG  -0.0698  -0.1435 
7     C4       2.3460  -36.0770   23.6860 C.ar    1  LIG  -0.0398   0.1170 
8     N2       0.9890  -36.0280   24.1030 N.am    1  LIG  -0.4596  -0.5470 
9     H3       0.7643  -35.9928   25.0860 H       1  LIG   0.3311   0.3700 
10    C5      -0.1450  -36.0180   23.4080 C.2     1  LIG   0.7361   0.5438 
11    C6      -0.1190  -36.0770   21.8860 C.ar    1  LIG  -0.2550   0.0862 
12    C7      -1.1230  -35.3990   21.1890 C.ar    1  LIG  -0.0321  -0.1500 
13    H4      -1.7552  -34.6955   21.7041 H       1  LIG   0.1623   0.1500 
14    C8      -1.2960  -35.6300   19.8690 C.ar    1  LIG  -0.2723  -0.1500 
15    H5      -2.0662  -35.1073   19.3273 H       1  LIG   0.1522   0.1500 
16    C9      -0.4670  -36.5450   19.2400 C.ar    1  LIG   0.4373   0.1600 
17    H6      -0.5947  -36.7554   18.1915 H       1  LIG   0.0280   0.1500 
18    N3       0.5220  -37.2120   19.8740 N.ar    1  LIG  -0.6893  -0.6200 
19    C10      0.7040  -36.9790   21.1800 C.ar    1  LIG   0.6480   0.4100 
20    N4       1.7670  -37.6730   21.8260 N.pl3   1  LIG  -0.6924  -0.3690 
21    C11      2.7540  -36.8570   22.5840 C.ar    1  LIG   0.5805   0.4100 
22    C12      2.9040  -34.5090   25.6010 C.3     1  LIG  -0.0620   0.1435 
23    H7       2.2235  -33.7630   25.2820 H       1  LIG   0.0570   0.0000 
24    H8       2.4436  -35.1154   26.3371 H       1  LIG   0.0495   0.0000 
25    H9       3.7654  -34.0491   26.0108 H       1  LIG   0.0519   0.0000 
26    O1      -1.2400  -35.9060   23.9770 O.2     1  LIG  -0.6361  -0.5700 
27    C13      2.3440  -38.7570   21.0360 C.3     1  LIG   0.1354   0.0690 
28    H10      3.1238  -38.3754   20.4296 H       1  LIG   0.0981   0.1000 
29    C14      2.9380  -39.8900   21.8010 C.3     1  LIG  -0.1181  -0.2000 
30    H11      3.8890  -40.1268   21.3997 H       1  LIG   0.0732   0.1000 
31    H12      3.0430  -39.6129   22.8177 H       1  LIG   0.0789   0.1000 
32    C15      1.6390  -40.0610   21.0880 C.3     1  LIG  -0.1196  -0.2000 
33    H13      0.6832  -39.9283   21.5242 H       1  LIG   0.0807   0.1000 
34    H14      1.5292  -40.4423   20.1061 H       1  LIG   0.0733   0.1000 
@<TRIPOS>BOND
1     2     1     ar
2     3     2     1
3     4     2     ar
4     5     4     1
5     6     4     ar
6     7     6     ar
7     8     7     1
8     9     8     1
9     10    8     1
10    11    10    1
11    12    11    ar
12    13    12    1
13    14    12    ar
14    15    14    1
15    16    14    ar
16    17    16    1
17    18    16    ar
18    19    11    ar
19    19    18    ar
20    20    19    1
21    21    1     ar
22    21    7     ar
23    21    20    1
24    22    6     1
25    23    22    1
26    24    22    1
27    25    22    1
28    26    10    2
29    27    20    1
30    28    27    1
31    29    27    1
32    30    29    1
33    31    29    1
34    32    27    1
35    32    29    1
36    33    32    1
37    34    32    1
@<TRIPOS>SUBSTRUCTURE
1   LIG    1    
 
########## Name        : 1VRT.lig
########## Description : AM1BCC_CHARGES =  -0.0002 ORIGINAL_CHARGES =  -0.0000

@<TRIPOS>MOLECULE
1VRT.lig
34    37    1     0     0    
SMALL
USER_CHARGES
@<TRIPOS>ATOM
1     N1       4.0540  -36.9310   22.2210 N.ar    1  LIG  -0.6650  -0.6200 
2     C1       4.9660  -36.2380   22.9390 C.ar    1  LIG   0.3947   0.1600 
3     H1       6.0082  -36.2811   22.6707 H       1  LIG   0.0281   0.1500 
4     C2       4.6240  -35.4500   24.0360 C.ar    1  LIG  -0.2334  -0.1500 
5     H2       5.3884  -34.9151   24.5740 H       1  LIG   0.1480   0.1500 
6     C3       3.3050  -35.3690   24.4150 C.ar    1  LIG  -0.0698  -0.1435 
7     C4       2.3460  -36.0770   23.6860 C.ar    1  LIG  -0.0398   0.1170 
8     N2       0.9890  -36.0280   24.1030 N.am    1  LIG  -0.4596  -0.5470 
9     H3       0.7643  -35.9928   25.0860 H       1  LIG   0.3311   0.3700 
10    C5      -0.1450  -36.0180   23.4080 C.2     1  LIG   0.7361   0.5438 
11    C6      -0.1190  -36.0770   21.8860 C.ar    1  LIG  -0.2550   0.0862 
12    C7      -1.1230  -35.3990   21.1890 C.ar    1  LIG  -0.0321  -0.1500 
13    H4      -1.7552  -34.6955   21.7041 H       1  LIG   0.1623   0.1500 
14    C8      -1.2960  -35.6300   19.8690 C.ar    1  LIG  -0.2723  -0.1500 
15    H5      -2.0662  -35.1073   19.3273 H       1  LIG   0.1522   0.1500 
16    C9      -0.4670  -36.5450   19.2400 C.ar    1  LIG   0.4373   0.1600 
17    H6      -0.5947  -36.7554   18.1915 H       1  LIG   0.0280   0.1500 
18    N3       0.5220  -37.2120   19.8740 N.ar    1  LIG  -0.6893  -0.6200 
19    C10      0.7040  -36.9790   21.1800 C.ar    1  LIG   0.6480   0.4100 
20    N4       1.7670  -37.6730   21.8260 N.pl3   1  LIG  -0.6924  -0.3690 
21    C11      2.7540  -36.8570   22.5840 C.ar    1  LIG   0.5805   0.4100 
22    C12      2.9040  -34.5090   25.6010 C.3     1  LIG  -0.0620   0.1435 
23    H7       2.2235  -33.7630   25.2820 H       1  LIG   0.0570   0.0000 
24    H8       2.4436  -35.1154   26.3371 H       1  LIG   0.0495   0.0000 
25    H9       3.7654  -34.0491   26.0108 H       1  LIG   0.0519   0.0000 
26    O1      -1.2400  -35.9060   23.9770 O.2     1  LIG  -0.6361  -0.5700 
27    C13      2.3440  -38.7570   21.0360 C.3     1  LIG   0.1354   0.0690 
28    H10      3.1238  -38.3754   20.4296 H       1  LIG   0.0981   0.1000 
29    C14      2.9380  -39.8900   21.8010 C.3     1  LIG  -0.1181  -0.2000 
30    H11      3.8890  -40.1268   21.3997 H       1  LIG   0.0732   0.1000 
31    H12      3.0430  -39.6129   22.8177 H       1  LIG   0.0789   0.1000 
32    C15      1.6390  -40.0610   21.0880 C.3     1  LIG  -0.1196  -0.2000 
33    H13      0.6832  -39.9283   21.5242 H       1  LIG   0.0807   0.1000 
34    H14      1.5292  -40.4423   20.1061 H       1  LIG   0.0733   0.1000 
@<TRIPOS>BOND
1     2     1     ar
2     3     2     1
3     4     2     ar
4     5     4     1
5     6     4     ar
6     7     6     ar
7     8     7     1
8     9     8     1
9     10    8     1
10    11    10    1
11    12    11    ar
12    13    12    1
13    14    12    ar
14    15    14    1
15    16    14    ar
16    17    16    1
17    18    16    ar
18    19    11    ar
19    19    18    ar
20    20    19    1
21    21    1     ar
22    21    7     ar
23    21    20    1
24    22    6     1
25    23    22    1
26    24    22    1
27    25    22    1
28    26    10    2
29    27    20    1
30    28    27    1
31    29    27    1
32    30    29    1
33    31    29    1
34    32    27    1
35    32    29    1
36    33    32    1
37    34    32    1
@<TRIPOS>SUBSTRUCTURE
1   LIG    1    
 
########## Name        : 1VRT.lig
########## Description : AM1BCC_CHARGES =  -0.0002 ORIGINAL_CHARGES =  -0.0000

@<TRIPOS>MOLECULE
1VRT.lig
34    37    1     0     0    
SMALL
USER_CHARGES
@<TRIPOS>ATOM
1     N1       4.0540  -36.9310   22.2210 N.ar    1  LIG  -0.6650  -0.6200 
2     C1       4.9660  -36.2380   22.9390 C.ar    1  LIG   0.3947   0.1600 
3     H1       6.0082  -36.2811   22.6707 H       1  LIG   0.0281   0.1500 
4     C2       4.6240  -35.4500   24.0360 C.ar    1  LIG  -0.2334  -0.1500 
5     H2       5.3884  -34.9151   24.5740 H       1  LIG   0.1480   0.1500 
6     C3       3.3050  -35.3690   24.4150 C.ar    1  LIG  -0.0698  -0.1435 
7     C4       2.3460  -36.0770   23.6860 C.ar    1  LIG  -0.0398   0.1170 
8     N2       0.9890  -36.0280   24.1030 N.am    1  LIG  -0.4596  -0.5470 
9     H3       0.7643  -35.9928   25.0860 H       1  LIG   0.3311   0.3700 
10    C5      -0.1450  -36.0180   23.4080 C.2     1  LIG   0.7361   0.5438 
11    C6      -0.1190  -36.0770   21.8860 C.ar    1  LIG  -0.2550   0.0862 
12    C7      -1.1230  -35.3990   21.1890 C.ar    1  LIG  -0.0321  -0.1500 
13    H4      -1.7552  -34.6955   21.7041 H       1  LIG   0.1623   0.1500 
14    C8      -1.2960  -35.6300   19.8690 C.ar    1  LIG  -0.2723  -0.1500 
15    H5      -2.0662  -35.1073   19.3273 H       1  LIG   0.1522   0.1500 
16    C9      -0.4670  -36.5450   19.2400 C.ar    1  LIG   0.4373   0.1600 
17    H6      -0.5947  -36.7554   18.1915 H       1  LIG   0.0280   0.1500 
18    N3       0.5220  -37.2120   19.8740 N.ar    1  LIG  -0.6893  -0.6200 
19    C10      0.7040  -36.9790   21.1800 C.ar    1  LIG   0.6480   0.4100 
20    N4       1.7670  -37.6730   21.8260 N.pl3   1  LIG  -0.6924  -0.3690 
21    C11      2.7540  -36.8570   22.5840 C.ar    1  LIG   0.5805   0.4100 
22    C12      2.9040  -34.5090   25.6010 C.3     1  LIG  -0.0620   0.1435 
23    H7       2.2235  -33.7630   25.2820 H       1  LIG   0.0570   0.0000 
24    H8       2.4436  -35.1154   26.3371 H       1  LIG   0.0495   0.0000 
25    H9       3.7654  -34.0491   26.0108 H       1  LIG   0.0519   0.0000 
26    O1      -1.2400  -35.9060   23.9770 O.2     1  LIG  -0.6361  -0.5700 
27    C13      2.3440  -38.7570   21.0360 C.3     1  LIG   0.1354   0.0690 
28    H10      3.1238  -38.3754   20.4296 H       1  LIG   0.0981   0.1000 
29    C14      2.9380  -39.8900   21.8010 C.3     1  LIG  -0.1181  -0.2000 
30    H11      3.8890  -40.1268   21.3997 H       1  LIG   0.0732   0.1000 
31    H12      3.0430  -39.6129   22.8177 H       1  LIG   0.0789   0.1000 
32    C15      1.6390  -40.0610   21.0880 C.3     1  LIG  -0.1196  -0.2000 
33    H13      0.6832  -39.9283   21.5242 H       1  LIG   0.0807   0.1000 
34    H14      1.5292  -40.4423   20.1061 H       1  LIG   0.0733   0.1000 
@<TRIPOS>BOND
1     2     1     ar
2     3     2     1
3     4     2     ar
4     5     4     1
5     6     4     ar
6     7     6     ar
7     8     7     1
8     9     8     1
9     10    8     1
10    11    10    1
11    12    11    ar
12    13    12    1
13    14    12    ar
14    15    14    1
15    16    14    ar
16    17    16    1
17    18    16    ar
18    19    11    ar
19    19    18    ar
20    20    19    1
21    21    1     ar
22    21    7     ar
23    21    20    1
24    22    6     1
25    23    22    1
26    24    22    1
27    25    22    1
28    26    10    2
29    27    20    1
30    28    27    1
31    29    27    1
32    30    29    1
33    31    29    1
34    32    27    1
35    32    29    1
36    33    32    1
37    34    32    1
@<TRIPOS>SUBSTRUCTURE
1   LIG    1    
 
########## Name        : 1VRT.lig
########## Description : AM1BCC_CHARGES =  -0.0002 ORIGINAL_CHARGES =  -0.0000

@<TRIPOS>MOLECULE
1VRT.lig
34    37    1     0     0    
SMALL
USER_CHARGES
@<TRIPOS>ATOM
1     N1       4.0540  -36.9310   22.2210 N.ar    1  LIG  -0.6650  -0.6200 
2     C1       4.9660  -36.2380   22.9390 C.ar    1  LIG   0.3947   0.1600 
3     H1       6.0082  -36.2811   22.6707 H       1  LIG   0.0281   0.1500 
4     C2       4.6240  -35.4500   24.0360 C.ar    1  LIG  -0.2334  -0.1500 
5     H2       5.3884  -34.9151   24.5740 H       1  LIG   0.1480   0.1500 
6     C3       3.3050  -35.3690   24.4150 C.ar    1  LIG  -0.0698  -0.1435 
7     C4       2.3460  -36.0770   23.6860 C.ar    1  LIG  -0.0398   0.1170 
8     N2       0.9890  -36.0280   24.1030 N.am    1  LIG  -0.4596  -0.5470 
9     H3       0.7643  -35.9928   25.0860 H       1  LIG   0.3311   0.3700 
10    C5      -0.1450  -36.0180   23.4080 C.2     1  LIG   0.7361   0.5438 
11    C6      -0.1190  -36.0770   21.8860 C.ar    1  LIG  -0.2550   0.0862 
12    C7      -1.1230  -35.3990   21.1890 C.ar    1  LIG  -0.0321  -0.1500 
13    H4      -1.7552  -34.6955   21.7041 H       1  LIG   0.1623   0.1500 
14    C8      -1.2960  -35.6300   19.8690 C.ar    1  LIG  -0.2723  -0.1500 
15    H5      -2.0662  -35.1073   19.3273 H       1  LIG   0.1522   0.1500 
16    C9      -0.4670  -36.5450   19.2400 C.ar    1  LIG   0.4373   0.1600 
17    H6      -0.5947  -36.7554   18.1915 H       1  LIG   0.0280   0.1500 
18    N3       0.5220  -37.2120   19.8740 N.ar    1  LIG  -0.6893  -0.6200 
19    C10      0.7040  -36.9790   21.1800 C.ar    1  LIG   0.6480   0.4100 
20    N4       1.7670  -37.6730   21.8260 N.pl3   1  LIG  -0.6924  -0.3690 
21    C11      2.7540  -36.8570   22.5840 C.ar    1  LIG   0.5805   0.4100 
22    C12      2.9040  -34.5090   25.6010 C.3     1  LIG  -0.0620   0.1435 
23    H7       2.2235  -33.7630   25.2820 H       1  LIG   0.0570   0.0000 
24    H8       2.4436  -35.1154   26.3371 H       1  LIG   0.0495   0.0000 
25    H9       3.7654  -34.0491   26.0108 H       1  LIG   0.0519   0.0000 
26    O1      -1.2400  -35.9060   23.9770 O.2     1  LIG  -0.6361  -0.5700 
27    C13      2.3440  -38.7570   21.0360 C.3     1  LIG   0.1354   0.0690 
28    H10      3.1238  -38.3754   20.4296 H       1  LIG   0.0981   0.1000 
29    C14      2.9380  -39.8900   21.8010 C.3     1  LIG  -0.1181  -0.2000 
30    H11      3.8890  -40.1268   21.3997 H       1  LIG   0.0732   0.1000 
31    H12      3.0430  -39.6129   22.8177 H       1  LIG   0.0789   0.1000 
32    C15      1.6390  -40.0610   21.0880 C.3     1  LIG  -0.1196  -0.2000 
33    H13      0.6832  -39.9283   21.5242 H       1  LIG   0.0807   0.1000 
34    H14      1.5292  -40.4423   20.1061 H       1  LIG   0.0733   0.1000 
@<TRIPOS>BOND
1     2     1     ar
2     3     2     1
3     4     2     ar
4     5     4     1
5     6     4     ar
6     7     6     ar
7     8     7     1
8     9     8     1
9     10    8     1
10    11    10    1
11    12    11    ar
12    13    12    1
13    14    12    ar
14    15    14    1
15    16    14    ar
16    17    16    1
17    18    16    ar
18    19    11    ar
19    19    18    ar
20    20    19    1
21    21    1     ar
22    21    7     ar
23    21    20    1
24    22    6     1
25    23    22    1
26    24    22    1
27    25    22    1
28    26    10    2
29    27    20    1
30    28    27    1
31    29    27    1
32    30    29    1
33    31    29    1
34    32    27    1
35    32    29    1
36    33    32    1
37    34    32    1
@<TRIPOS>SUBSTRUCTURE
1   LIG    1    
 
########## Name        : 1VRT.lig
########## Description : AM1BCC_CHARGES =  -0.0002 ORIGINAL_CHARGES =  -0.0000

@<TRIPOS>MOLECULE
1VRT.lig
34    37    1     0     0    
SMALL
USER_CHARGES
@<TRIPOS>ATOM
1     N1       4.0540  -36.9310   22.2210 N.ar    1  LIG  -0.6650  -0.6200 
2     C1       4.9660  -36.2380   22.9390 C.ar    1  LIG   0.3947   0.1600 
3     H1       6.0082  -36.2811   22.6707 H       1  LIG   0.0281   0.1500 
4     C2       4.6240  -35.4500   24.0360 C.ar    1  LIG  -0.2334  -0.1500 
5     H2       5.3884  -34.9151   24.5740 H       1  LIG   0.1480   0.1500 
6     C3       3.3050  -35.3690   24.4150 C.ar    1  LIG  -0.0698  -0.1435 
7     C4       2.3460  -36.0770   23.6860 C.ar    1  LIG  -0.0398   0.1170 
8     N2       0.9890  -36.0280   24.1030 N.am    1  LIG  -0.4596  -0.5470 
9     H3       0.7643  -35.9928   25.0860 H       1  LIG   0.3311   0.3700 
10    C5      -0.1450  -36.0180   23.4080 C.2     1  LIG   0.7361   0.5438 
11    C6      -0.1190  -36.0770   21.8860 C.ar    1  LIG  -0.2550   0.0862 
12    C7      -1.1230  -35.3990   21.1890 C.ar    1  LIG  -0.0321  -0.1500 
13    H4      -1.7552  -34.6955   21.7041 H       1  LIG   0.1623   0.1500 
14    C8      -1.2960  -35.6300   19.8690 C.ar    1  LIG  -0.2723  -0.1500 
15    H5      -2.0662  -35.1073   19.3273 H       1  LIG   0.1522   0.1500 
16    C9      -0.4670  -36.5450   19.2400 C.ar    1  LIG   0.4373   0.1600 
17    H6      -0.5947  -36.7554   18.1915 H       1  LIG   0.0280   0.1500 
18    N3       0.5220  -37.2120   19.8740 N.ar    1  LIG  -0.6893  -0.6200 
19    C10      0.7040  -36.9790   21.1800 C.ar    1  LIG   0.6480   0.4100 
20    N4       1.7670  -37.6730   21.8260 N.pl3   1  LIG  -0.6924  -0.3690 
21    C11      2.7540  -36.8570   22.5840 C.ar    1  LIG   0.5805   0.4100 
22    C12      2.9040  -34.5090   25.6010 C.3     1  LIG  -0.0620   0.1435 
23    H7       2.2235  -33.7630   25.2820 H       1  LIG   0.0570   0.0000 
24    H8       2.4436  -35.1154   26.3371 H       1  LIG   0.0495   0.0000 
25    H9       3.7654  -34.0491   26.0108 H       1  LIG   0.0519   0.0000 
26    O1      -1.2400  -35.9060   23.9770 O.2     1  LIG  -0.6361  -0.5700 
27    C13      2.3440  -38.7570   21.0360 C.3     1  LIG   0.1354   0.0690 
28    H10      3.1238  -38.3754   20.4296 H       1  LIG   0.0981   0.1000 
29    C14      2.9380  -39.8900   21.8010 C.3     1  LIG  -0.1181  -0.2000 
30    H11      3.8890  -40.1268   21.3997 H       1  LIG   0.0732   0.1000 
31    H12      3.0430  -39.6129   22.8177 H       1  LIG   0.0789   0.1000 
32    C15      1.6390  -40.0610   21.0880 C.3     1  LIG  -0.1196  -0.2000 
33    H13      0.6832  -39.9283   21.5242 H       1  LIG   0.0807   0.1000 
34    H14      1.5292  -40.4423   20.1061 H       1  LIG   0.0733   0.1000 
@<TRIPOS>BOND
1     2     1     ar
2     3     2     1
3     4     2     ar
4     5     4     1
5     6     4     ar
6     7     6     ar
7     8     7     1
8     9     8     1
9     10    8     1
10    11    10    1
11    12    11    ar
12    13    12    1
13    14    12    ar
14    15    14    1
15    16    14    ar
16    17    16    1
17    18    16    ar
18    19    11    ar
19    19    18    ar
20    20    19    1
21    21    1     ar
22    21    7     ar
23    21    20    1
24    22    6     1
25    23    22    1
26    24    22    1
27    25    22    1
28    26    10    2
29    27    20    1
30    28    27    1
31    29    27    1
32    30    29    1
33    31    29    1
34    32    27    1
35    32    29    1
36    33    32    1
37    34    32    1
@<TRIPOS>SUBSTRUCTURE
1   LIG    1    
 
########## Name        : 1VRT.lig
########## Description : AM1BCC_CHARGES =  -0.0002 ORIGINAL_CHARGES =  -0.0000

@<TRIPOS>MOLECULE
1VRT.lig
34    37    1     0     0    
SMALL
USER_CHARGES
@<TRIPOS>ATOM
1     N1       4.0540  -36.9310   22.2210 N.ar    1  LIG  -0.6650  -0.6200 
2     C1       4.9660  -36.2380   22.9390 C.ar    1  LIG   0.3947   0.1600 
3     H1       6.0082  -36.2811   22.6707 H       1  LIG   0.0281   0.1500 
4     C2       4.6240  -35.4500   24.0360 C.ar    1  LIG  -0.2334  -0.1500 
5     H2       5.3884  -34.9151   24.5740 H       1  LIG   0.1480   0.1500 
6     C3       3.3050  -35.3690   24.4150 C.ar    1  LIG  -0.0698  -0.1435 
7     C4       2.3460  -36.0770   23.6860 C.ar    1  LIG  -0.0398   0.1170 
8     N2       0.9890  -36.0280   24.1030 N.am    1  LIG  -0.4596  -0.5470 
9     H3       0.7643  -35.9928   25.0860 H       1  LIG   0.3311   0.3700 
10    C5      -0.1450  -36.0180   23.4080 C.2     1  LIG   0.7361   0.5438 
11    C6      -0.1190  -36.0770   21.8860 C.ar    1  LIG  -0.2550   0.0862 
12    C7      -1.1230  -35.3990   21.1890 C.ar    1  LIG  -0.0321  -0.1500 
13    H4      -1.7552  -34.6955   21.7041 H       1  LIG   0.1623   0.1500 
14    C8      -1.2960  -35.6300   19.8690 C.ar    1  LIG  -0.2723  -0.1500 
15    H5      -2.0662  -35.1073   19.3273 H       1  LIG   0.1522   0.1500 
16    C9      -0.4670  -36.5450   19.2400 C.ar    1  LIG   0.4373   0.1600 
17    H6      -0.5947  -36.7554   18.1915 H       1  LIG   0.0280   0.1500 
18    N3       0.5220  -37.2120   19.8740 N.ar    1  LIG  -0.6893  -0.6200 
19    C10      0.7040  -36.9790   21.1800 C.ar    1  LIG   0.6480   0.4100 
20    N4       1.7670  -37.6730   21.8260 N.pl3   1  LIG  -0.6924  -0.3690 
21    C11      2.7540  -36.8570   22.5840 C.ar    1  LIG   0.5805   0.4100 
22    C12      2.9040  -34.5090   25.6010 C.3     1  LIG  -0.0620   0.1435 
23    H7       2.2235  -33.7630   25.2820 H       1  LIG   0.0570   0.0000 
24    H8       2.4436  -35.1154   26.3371 H       1  LIG   0.0495   0.0000 
25    H9       3.7654  -34.0491   26.0108 H       1  LIG   0.0519   0.0000 
26    O1      -1.2400  -35.9060   23.9770 O.2     1  LIG  -0.6361  -0.5700 
27    C13      2.3440  -38.7570   21.0360 C.3     1  LIG   0.1354   0.0690 
28    H10      3.1238  -38.3754   20.4296 H       1  LIG   0.0981   0.1000 
29    C14      2.9380  -39.8900   21.8010 C.3     1  LIG  -0.1181  -0.2000 
30    H11      3.8890  -40.1268   21.3997 H       1  LIG   0.0732   0.1000 
31    H12      3.0430  -39.6129   22.8177 H       1  LIG   0.0789   0.1000 
32    C15      1.6390  -40.0610   21.0880 C.3     1  LIG  -0.1196  -0.2000 
33    H13      0.6832  -39.9283   21.5242 H       1  LIG   0.0807   0.1000 
34    H14      1.5292  -40.4423   20.1061 H       1  LIG   0.0733   0.1000 
@<TRIPOS>BOND
1     2     1     ar
2     3     2     1
3     4     2     ar
4     5     4     1
5     6     4     ar
6     7     6     ar
7     8     7     1
8     9     8     1
9     10    8     1
10    11    10    1
11    12    11    ar
12    13    12    1
13    14    12    ar
14    15    14    1
15    16    14    ar
16    17    16    1
17    18    16    ar
18    19    11    ar
19    19    18    ar
20    20    19    1
21    21    1     ar
22    21    7     ar
23    21    20    1
24    22    6     1
25    23    22    1
26    24    22    1
27    25    22    1
28    26    10    2
29    27    20    1
30    28    27    1
31    29    27    1
32    30    29    1
33    31    29    1
34    32    27    1
35    32    29    1
36    33    32    1
37    34    32    1
@<TRIPOS>SUBSTRUCTURE
1   LIG    1    
 
########## Name        : 1VRT.lig
########## Description : AM1BCC_CHARGES =  -0.0002 ORIGINAL_CHARGES =  -0.0000

@<TRIPOS>MOLECULE
1VRT.lig
34    37    1     0     0    
SMALL
USER_CHARGES
@<TRIPOS>ATOM
1     N1       4.0540  -36.9310   22.2210 N.ar    1  LIG  -0.6650  -0.6200 
2     C1       4.9660  -36.2380   22.9390 C.ar    1  LIG   0.3947   0.1600 
3     H1       6.0082  -36.2811   22.6707 H       1  LIG   0.0281   0.1500 
4     C2       4.6240  -35.4500   24.0360 C.ar    1  LIG  -0.2334  -0.1500 
5     H2       5.3884  -34.9151   24.5740 H       1  LIG   0.1480   0.1500 
6     C3       3.3050  -35.3690   24.4150 C.ar    1  LIG  -0.0698  -0.1435 
7     C4       2.3460  -36.0770   23.6860 C.ar    1  LIG  -0.0398   0.1170 
8     N2       0.9890  -36.0280   24.1030 N.am    1  LIG  -0.4596  -0.5470 
9     H3       0.7643  -35.9928   25.0860 H       1  LIG   0.3311   0.3700 
10    C5      -0.1450  -36.0180   23.4080 C.2     1  LIG   0.7361   0.5438 
11    C6      -0.1190  -36.0770   21.8860 C.ar    1  LIG  -0.2550   0.0862 
12    C7      -1.1230  -35.3990   21.1890 C.ar    1  LIG  -0.0321  -0.1500 
13    H4      -1.7552  -34.6955   21.7041 H       1  LIG   0.1623   0.1500 
14    C8      -1.2960  -35.6300   19.8690 C.ar    1  LIG  -0.2723  -0.1500 
15    H5      -2.0662  -35.1073   19.3273 H       1  LIG   0.1522   0.1500 
16    C9      -0.4670  -36.5450   19.2400 C.ar    1  LIG   0.4373   0.1600 
17    H6      -0.5947  -36.7554   18.1915 H       1  LIG   0.0280   0.1500 
18    N3       0.5220  -37.2120   19.8740 N.ar    1  LIG  -0.6893  -0.6200 
19    C10      0.7040  -36.9790   21.1800 C.ar    1  LIG   0.6480   0.4100 
20    N4       1.7670  -37.6730   21.8260 N.pl3   1  LIG  -0.6924  -0.3690 
21    C11      2.7540  -36.8570   22.5840 C.ar    1  LIG   0.5805   0.4100 
22    C12      2.9040  -34.5090   25.6010 C.3     1  LIG  -0.0620   0.1435 
23    H7       2.2235  -33.7630   25.2820 H       1  LIG   0.0570   0.0000 
24    H8       2.4436  -35.1154   26.3371 H       1  LIG   0.0495   0.0000 
25    H9       3.7654  -34.0491   26.0108 H       1  LIG   0.0519   0.0000 
26    O1      -1.2400  -35.9060   23.9770 O.2     1  LIG  -0.6361  -0.5700 
27    C13      2.3440  -38.7570   21.0360 C.3     1  LIG   0.1354   0.0690 
28    H10      3.1238  -38.3754   20.4296 H       1  LIG   0.0981   0.1000 
29    C14      2.9380  -39.8900   21.8010 C.3     1  LIG  -0.1181  -0.2000 
30    H11      3.8890  -40.1268   21.3997 H       1  LIG   0.0732   0.1000 
31    H12      3.0430  -39.6129   22.8177 H       1  LIG   0.0789   0.1000 
32    C15      1.6390  -40.0610   21.0880 C.3     1  LIG  -0.1196  -0.2000 
33    H13      0.6832  -39.9283   21.5242 H       1  LIG   0.0807   0.1000 
34    H14      1.5292  -40.4423   20.1061 H       1  LIG   0.0733   0.1000 
@<TRIPOS>BOND
1     2     1     ar
2     3     2     1
3     4     2     ar
4     5     4     1
5     6     4     ar
6     7     6     ar
7     8     7     1
8     9     8     1
9     10    8     1
10    11    10    1
11    12    11    ar
12    13    12    1
13    14    12    ar
14    15    14    1
15    16    14    ar
16    17    16    1
17    18    16    ar
18    19    11    ar
19    19    18    ar
20    20    19    1
21    21    1     ar
22    21    7     ar
23    21    20    1
24    22    6     1
25    23    22    1
26    24    22    1
27    25    22    1
28    26    10    2
29    27    20    1
30    28    27    1
31    29    27    1
32    30    29    1
33    31    29    1
34    32    27    1
35    32    29    1
36    33    32    1
37    34    32    1
@<TRIPOS>SUBSTRUCTURE
1   LIG    1    
 
########## Name        : 1VRT.lig
########## Description : AM1BCC_CHARGES =  -0.0002 ORIGINAL_CHARGES =  -0.0000

@<TRIPOS>MOLECULE
1VRT.lig
34    37    1     0     0    
SMALL
USER_CHARGES
@<TRIPOS>ATOM
1     N1       4.0540  -36.9310   22.2210 N.ar    1  LIG  -0.6650  -0.6200 
2     C1       4.9660  -36.2380   22.9390 C.ar    1  LIG   0.3947   0.1600 
3     H1       6.0082  -36.2811   22.6707 H       1  LIG   0.0281   0.1500 
4     C2       4.6240  -35.4500   24.0360 C.ar    1  LIG  -0.2334  -0.1500 
5     H2       5.3884  -34.9151   24.5740 H       1  LIG   0.1480   0.1500 
6     C3       3.3050  -35.3690   24.4150 C.ar    1  LIG  -0.0698  -0.1435 
7     C4       2.3460  -36.0770   23.6860 C.ar    1  LIG  -0.0398   0.1170 
8     N2       0.9890  -36.0280   24.1030 N.am    1  LIG  -0.4596  -0.5470 
9     H3       0.7643  -35.9928   25.0860 H       1  LIG   0.3311   0.3700 
10    C5      -0.1450  -36.0180   23.4080 C.2     1  LIG   0.7361   0.5438 
11    C6      -0.1190  -36.0770   21.8860 C.ar    1  LIG  -0.2550   0.0862 
12    C7      -1.1230  -35.3990   21.1890 C.ar    1  LIG  -0.0321  -0.1500 
13    H4      -1.7552  -34.6955   21.7041 H       1  LIG   0.1623   0.1500 
14    C8      -1.2960  -35.6300   19.8690 C.ar    1  LIG  -0.2723  -0.1500 
15    H5      -2.0662  -35.1073   19.3273 H       1  LIG   0.1522   0.1500 
16    C9      -0.4670  -36.5450   19.2400 C.ar    1  LIG   0.4373   0.1600 
17    H6      -0.5947  -36.7554   18.1915 H       1  LIG   0.0280   0.1500 
18    N3       0.5220  -37.2120   19.8740 N.ar    1  LIG  -0.6893  -0.6200 
19    C10      0.7040  -36.9790   21.1800 C.ar    1  LIG   0.6480   0.4100 
20    N4       1.7670  -37.6730   21.8260 N.pl3   1  LIG  -0.6924  -0.3690 
21    C11      2.7540  -36.8570   22.5840 C.ar    1  LIG   0.5805   0.4100 
22    C12      2.9040  -34.5090   25.6010 C.3     1  LIG  -0.0620   0.1435 
23    H7       2.2235  -33.7630   25.2820 H       1  LIG   0.0570   0.0000 
24    H8       2.4436  -35.1154   26.3371 H       1  LIG   0.0495   0.0000 
25    H9       3.7654  -34.0491   26.0108 H       1  LIG   0.0519   0.0000 
26    O1      -1.2400  -35.9060   23.9770 O.2     1  LIG  -0.6361  -0.5700 
27    C13      2.3440  -38.7570   21.0360 C.3     1  LIG   0.1354   0.0690 
28    H10      3.1238  -38.3754   20.4296 H       1  LIG   0.0981   0.1000 
29    C14      2.9380  -39.8900   21.8010 C.3     1  LIG  -0.1181  -0.2000 
30    H11      3.8890  -40.1268   21.3997 H       1  LIG   0.0732   0.1000 
31    H12      3.0430  -39.6129   22.8177 H       1  LIG   0.0789   0.1000 
32    C15      1.6390  -40.0610   21.0880 C.3     1  LIG  -0.1196  -0.2000 
33    H13      0.6832  -39.9283   21.5242 H       1  LIG   0.0807   0.1000 
34    H14      1.5292  -40.4423   20.1061 H       1  LIG   0.0733   0.1000 
@<TRIPOS>BOND
1     2     1     ar
2     3     2     1
3     4     2     ar
4     5     4     1
5     6     4     ar
6     7     6     ar
7     8     7     1
8     9     8     1
9     10    8     1
10    11    10    1
11    12    11    ar
12    13    12    1
13    14    12    ar
14    15    14    1
15    16    14    ar
16    17    16    1
17    18    16    ar
18    19    11    ar
19    19    18    ar
20    20    19    1
21    21    1     ar
22    21    7     ar
23    21    20    1
24    22    6     1
25    23    22    1
26    24    22    1
27    25    22    1
28    26    10    2
29    27    20    1
30    28    27    1
31    29    27    1
32    30    29    1
33    31    29    1
34    32    27    1
35    32    29    1
36    33    32    1
37    34    32    1
@<TRIPOS>SUBSTRUCTURE
1   LIG    1    
 
########## Name        : 1VRT.lig
########## Description : AM1BCC_CHARGES =  -0.0002 ORIGINAL_CHARGES =  -0.0000

@<TRIPOS>MOLECULE
1VRT.lig
34    37    1     0     0    
SMALL
USER_CHARGES
@<TRIPOS>ATOM
1     N1       4.0540  -36.9310   22.2210 N.ar    1  LIG  -0.6650  -0.6200 
2     C1       4.9660  -36.2380   22.9390 C.ar    1  LIG   0.3947   0.1600 
3     H1       6.0082  -36.2811   22.6707 H       1  LIG   0.0281   0.1500 
4     C2       4.6240  -35.4500   24.0360 C.ar    1  LIG  -0.2334  -0.1500 
5     H2       5.3884  -34.9151   24.5740 H       1  LIG   0.1480   0.1500 
6     C3       3.3050  -35.3690   24.4150 C.ar    1  LIG  -0.0698  -0.1435 
7     C4       2.3460  -36.0770   23.6860 C.ar    1  LIG  -0.0398   0.1170 
8     N2       0.9890  -36.0280   24.1030 N.am    1  LIG  -0.4596  -0.5470 
9     H3       0.7643  -35.9928   25.0860 H       1  LIG   0.3311   0.3700 
10    C5      -0.1450  -36.0180   23.4080 C.2     1  LIG   0.7361   0.5438 
11    C6      -0.1190  -36.0770   21.8860 C.ar    1  LIG  -0.2550   0.0862 
12    C7      -1.1230  -35.3990   21.1890 C.ar    1  LIG  -0.0321  -0.1500 
13    H4      -1.7552  -34.6955   21.7041 H       1  LIG   0.1623   0.1500 
14    C8      -1.2960  -35.6300   19.8690 C.ar    1  LIG  -0.2723  -0.1500 
15    H5      -2.0662  -35.1073   19.3273 H       1  LIG   0.1522   0.1500 
16    C9      -0.4670  -36.5450   19.2400 C.ar    1  LIG   0.4373   0.1600 
17    H6      -0.5947  -36.7554   18.1915 H       1  LIG   0.0280   0.1500 
18    N3       0.5220  -37.2120   19.8740 N.ar    1  LIG  -0.6893  -0.6200 
19    C10      0.7040  -36.9790   21.1800 C.ar    1  LIG   0.6480   0.4100 
20    N4       1.7670  -37.6730   21.8260 N.pl3   1  LIG  -0.6924  -0.3690 
21    C11      2.7540  -36.8570   22.5840 C.ar    1  LIG   0.5805   0.4100 
22    C12      2.9040  -34.5090   25.6010 C.3     1  LIG  -0.0620   0.1435 
23    H7       2.2235  -33.7630   25.2820 H       1  LIG   0.0570   0.0000 
24    H8       2.4436  -35.1154   26.3371 H       1  LIG   0.0495   0.0000 
25    H9       3.7654  -34.0491   26.0108 H       1  LIG   0.0519   0.0000 
26    O1      -1.2400  -35.9060   23.9770 O.2     1  LIG  -0.6361  -0.5700 
27    C13      2.3440  -38.7570   21.0360 C.3     1  LIG   0.1354   0.0690 
28    H10      3.1238  -38.3754   20.4296 H       1  LIG   0.0981   0.1000 
29    C14      2.9380  -39.8900   21.8010 C.3     1  LIG  -0.1181  -0.2000 
30    H11      3.8890  -40.1268   21.3997 H       1  LIG   0.0732   0.1000 
31    H12      3.0430  -39.6129   22.8177 H       1  LIG   0.0789   0.1000 
32    C15      1.6390  -40.0610   21.0880 C.3     1  LIG  -0.1196  -0.2000 
33    H13      0.6832  -39.9283   21.5242 H       1  LIG   0.0807   0.1000 
34    H14      1.5292  -40.4423   20.1061 H       1  LIG   0.0733   0.1000 
@<TRIPOS>BOND
1     2     1     ar
2     3     2     1
3     4     2     ar
4     5     4     1
5     6     4     ar
6     7     6     ar
7     8     7     1
8     9     8     1
9     10    8     1
10    11    10    1
11    12    11    ar
12    13    12    1
13    14    12    ar
14    15    14    1
15    16    14    ar
16    17    16    1
17    18    16    ar
18    19    11    ar
19    19    18    ar
20    20    19    1
21    21    1     ar
22    21    7     ar
23    21    20    1
24    22    6     1
25    23    22    1
26    24    22    1
27    25    22    1
28    26    10    2
29    27    20    1
30    28    27    1
31    29    27    1
32    30    29    1
33    31    29    1
34    32    27    1
35    32    29    1
36    33    32    1
37    34    32    1
@<TRIPOS>SUBSTRUCTURE
1   LIG    1    
 
########## Name        : 1VRT.lig
########## Description : AM1BCC_CHARGES =  -0.0002 ORIGINAL_CHARGES =  -0.0000

@<TRIPOS>MOLECULE
1VRT.lig
34    37    1     0     0    
SMALL
USER_CHARGES
@<TRIPOS>ATOM
1     N1       4.0540  -36.9310   22.2210 N.ar    1  LIG  -0.6650  -0.6200 
2     C1       4.9660  -36.2380   22.9390 C.ar    1  LIG   0.3947   0.1600 
3     H1       6.0082  -36.2811   22.6707 H       1  LIG   0.0281   0.1500 
4     C2       4.6240  -35.4500   24.0360 C.ar    1  LIG  -0.2334  -0.1500 
5     H2       5.3884  -34.9151   24.5740 H       1  LIG   0.1480   0.1500 
6     C3       3.3050  -35.3690   24.4150 C.ar    1  LIG  -0.0698  -0.1435 
7     C4       2.3460  -36.0770   23.6860 C.ar    1  LIG  -0.0398   0.1170 
8     N2       0.9890  -36.0280   24.1030 N.am    1  LIG  -0.4596  -0.5470 
9     H3       0.7643  -35.9928   25.0860 H       1  LIG   0.3311   0.3700 
10    C5      -0.1450  -36.0180   23.4080 C.2     1  LIG   0.7361   0.5438 
11    C6      -0.1190  -36.0770   21.8860 C.ar    1  LIG  -0.2550   0.0862 
12    C7      -1.1230  -35.3990   21.1890 C.ar    1  LIG  -0.0321  -0.1500 
13    H4      -1.7552  -34.6955   21.7041 H       1  LIG   0.1623   0.1500 
14    C8      -1.2960  -35.6300   19.8690 C.ar    1  LIG  -0.2723  -0.1500 
15    H5      -2.0662  -35.1073   19.3273 H       1  LIG   0.1522   0.1500 
16    C9      -0.4670  -36.5450   19.2400 C.ar    1  LIG   0.4373   0.1600 
17    H6      -0.5947  -36.7554   18.1915 H       1  LIG   0.0280   0.1500 
18    N3       0.5220  -37.2120   19.8740 N.ar    1  LIG  -0.6893  -0.6200 
19    C10      0.7040  -36.9790   21.1800 C.ar    1  LIG   0.6480   0.4100 
20    N4       1.7670  -37.6730   21.8260 N.pl3   1  LIG  -0.6924  -0.3690 
21    C11      2.7540  -36.8570   22.5840 C.ar    1  LIG   0.5805   0.4100 
22    C12      2.9040  -34.5090   25.6010 C.3     1  LIG  -0.0620   0.1435 
23    H7       2.2235  -33.7630   25.2820 H       1  LIG   0.0570   0.0000 
24    H8       2.4436  -35.1154   26.3371 H       1  LIG   0.0495   0.0000 
25    H9       3.7654  -34.0491   26.0108 H       1  LIG   0.0519   0.0000 
26    O1      -1.2400  -35.9060   23.9770 O.2     1  LIG  -0.6361  -0.5700 
27    C13      2.3440  -38.7570   21.0360 C.3     1  LIG   0.1354   0.0690 
28    H10      3.1238  -38.3754   20.4296 H       1  LIG   0.0981   0.1000 
29    C14      2.9380  -39.8900   21.8010 C.3     1  LIG  -0.1181  -0.2000 
30    H11      3.8890  -40.1268   21.3997 H       1  LIG   0.0732   0.1000 
31    H12      3.0430  -39.6129   22.8177 H       1  LIG   0.0789   0.1000 
32    C15      1.6390  -40.0610   21.0880 C.3     1  LIG  -0.1196  -0.2000 
33    H13      0.6832  -39.9283   21.5242 H       1  LIG   0.0807   0.1000 
34    H14      1.5292  -40.4423   20.1061 H       1  LIG   0.0733   0.1000 
@<TRIPOS>BOND
1     2     1     ar
2     3     2     1
3     4     2     ar
4     5     4     1
5     6     4     ar
6     7     6     ar
7     8     7     1
8     9     8     1
9     10    8     1
10    11    10    1
11    12    11    ar
12    13    12    1
13    14    12    ar
14    15    14    1
15    16    14    ar
16    17    16    1
17    18    16    ar
18    19    11    ar
19    19    18    ar
20    20    19    1
21    21    1     ar
22    21    7     ar
23    21    20    1
24    22    6     1
25    23    22    1
26    24    22    1
27    25    22    1
28    26    10    2
29    27    20    1
30    28    27    1
31    29    27    1
32    30    29    1
33    31    29    1
34    32    27    1
35    32    29    1
36    33    32    1
37    34    32    1
@<TRIPOS>SUBSTRUCTURE
1   LIG    1    
 
########## Name        : 1VRT.lig
########## Description : AM1BCC_CHARGES =  -0.0002 ORIGINAL_CHARGES =  -0.0000

@<TRIPOS>MOLECULE
1VRT.lig
34    37    1     0     0    
SMALL
USER_CHARGES
@<TRIPOS>ATOM
1     N1       4.0540  -36.9310   22.2210 N.ar    1  LIG  -0.6650  -0.6200 
2     C1       4.9660  -36.2380   22.9390 C.ar    1  LIG   0.3947   0.1600 
3     H1       6.0082  -36.2811   22.6707 H       1  LIG   0.0281   0.1500 
4     C2       4.6240  -35.4500   24.0360 C.ar    1  LIG  -0.2334  -0.1500 
5     H2       5.3884  -34.9151   24.5740 H       1  LIG   0.1480   0.1500 
6     C3       3.3050  -35.3690   24.4150 C.ar    1  LIG  -0.0698  -0.1435 
7     C4       2.3460  -36.0770   23.6860 C.ar    1  LIG  -0.0398   0.1170 
8     N2       0.9890  -36.0280   24.1030 N.am    1  LIG  -0.4596  -0.5470 
9     H3       0.7643  -35.9928   25.0860 H       1  LIG   0.3311   0.3700 
10    C5      -0.1450  -36.0180   23.4080 C.2     1  LIG   0.7361   0.5438 
11    C6      -0.1190  -36.0770   21.8860 C.ar    1  LIG  -0.2550   0.0862 
12    C7      -1.1230  -35.3990   21.1890 C.ar    1  LIG  -0.0321  -0.1500 
13    H4      -1.7552  -34.6955   21.7041 H       1  LIG   0.1623   0.1500 
14    C8      -1.2960  -35.6300   19.8690 C.ar    1  LIG  -0.2723  -0.1500 
15    H5      -2.0662  -35.1073   19.3273 H       1  LIG   0.1522   0.1500 
16    C9      -0.4670  -36.5450   19.2400 C.ar    1  LIG   0.4373   0.1600 
17    H6      -0.5947  -36.7554   18.1915 H       1  LIG   0.0280   0.1500 
18    N3       0.5220  -37.2120   19.8740 N.ar    1  LIG  -0.6893  -0.6200 
19    C10      0.7040  -36.9790   21.1800 C.ar    1  LIG   0.6480   0.4100 
20    N4       1.7670  -37.6730   21.8260 N.pl3   1  LIG  -0.6924  -0.3690 
21    C11      2.7540  -36.8570   22.5840 C.ar    1  LIG   0.5805   0.4100 
22    C12      2.9040  -34.5090   25.6010 C.3     1  LIG  -0.0620   0.1435 
23    H7       2.2235  -33.7630   25.2820 H       1  LIG   0.0570   0.0000 
24    H8       2.4436  -35.1154   26.3371 H       1  LIG   0.0495   0.0000 
25    H9       3.7654  -34.0491   26.0108 H       1  LIG   0.0519   0.0000 
26    O1      -1.2400  -35.9060   23.9770 O.2     1  LIG  -0.6361  -0.5700 
27    C13      2.3440  -38.7570   21.0360 C.3     1  LIG   0.1354   0.0690 
28    H10      3.1238  -38.3754   20.4296 H       1  LIG   0.0981   0.1000 
29    C14      2.9380  -39.8900   21.8010 C.3     1  LIG  -0.1181  -0.2000 
30    H11      3.8890  -40.1268   21.3997 H       1  LIG   0.0732   0.1000 
31    H12      3.0430  -39.6129   22.8177 H       1  LIG   0.0789   0.1000 
32    C15      1.6390  -40.0610   21.0880 C.3     1  LIG  -0.1196  -0.2000 
33    H13      0.6832  -39.9283   21.5242 H       1  LIG   0.0807   0.1000 
34    H14      1.5292  -40.4423   20.1061 H       1  LIG   0.0733   0.1000 
@<TRIPOS>BOND
1     2     1     ar
2     3     2     1
3     4     2     ar
4     5     4     1
5     6     4     ar
6     7     6     ar
7     8     7     1
8     9     8     1
9     10    8     1
10    11    10    1
11    12    11    ar
12    13    12    1
13    14    12    ar
14    15    14    1
15    16    14    ar
16    17    16    1
17    18    16    ar
18    19    11    ar
19    19    18    ar
20    20    19    1
21    21    1     ar
22    21    7     ar
23    21    20    1
24    22    6     1
25    23    22    1
26    24    22    1
27    25    22    1
28    26    10    2
29    27    20    1
30    28    27    1
31    29    27    1
32    30    29    1
33    31    29    1
34    32    27    1
35    32    29    1
36    33    32    1
37    34    32    1
@<TRIPOS>SUBSTRUCTURE
1   LIG    1    
 
########## Name        : 1VRT.lig
########## Description : AM1BCC_CHARGES =  -0.0002 ORIGINAL_CHARGES =  -0.0000

@<TRIPOS>MOLECULE
1VRT.lig
34    37    1     0     0    
SMALL
USER_CHARGES
@<TRIPOS>ATOM
1     N1       4.0540  -36.9310   22.2210 N.ar    1  LIG  -0.6650  -0.6200 
2     C1       4.9660  -36.2380   22.9390 C.ar    1  LIG   0.3947   0.1600 
3     H1       6.0082  -36.2811   22.6707 H       1  LIG   0.0281   0.1500 
4     C2       4.6240  -35.4500   24.0360 C.ar    1  LIG  -0.2334  -0.1500 
5     H2       5.3884  -34.9151   24.5740 H       1  LIG   0.1480   0.1500 
6     C3       3.3050  -35.3690   24.4150 C.ar    1  LIG  -0.0698  -0.1435 
7     C4       2.3460  -36.0770   23.6860 C.ar    1  LIG  -0.0398   0.1170 
8     N2       0.9890  -36.0280   24.1030 N.am    1  LIG  -0.4596  -0.5470 
9     H3       0.7643  -35.9928   25.0860 H       1  LIG   0.3311   0.3700 
10    C5      -0.1450  -36.0180   23.4080 C.2     1  LIG   0.7361   0.5438 
11    C6      -0.1190  -36.0770   21.8860 C.ar    1  LIG  -0.2550   0.0862 
12    C7      -1.1230  -35.3990   21.1890 C.ar    1  LIG  -0.0321  -0.1500 
13    H4      -1.7552  -34.6955   21.7041 H       1  LIG   0.1623   0.1500 
14    C8      -1.2960  -35.6300   19.8690 C.ar    1  LIG  -0.2723  -0.1500 
15    H5      -2.0662  -35.1073   19.3273 H       1  LIG   0.1522   0.1500 
16    C9      -0.4670  -36.5450   19.2400 C.ar    1  LIG   0.4373   0.1600 
17    H6      -0.5947  -36.7554   18.1915 H       1  LIG   0.0280   0.1500 
18    N3       0.5220  -37.2120   19.8740 N.ar    1  LIG  -0.6893  -0.6200 
19    C10      0.7040  -36.9790   21.1800 C.ar    1  LIG   0.6480   0.4100 
20    N4       1.7670  -37.6730   21.8260 N.pl3   1  LIG  -0.6924  -0.3690 
21    C11      2.7540  -36.8570   22.5840 C.ar    1  LIG   0.5805   0.4100 
22    C12      2.9040  -34.5090   25.6010 C.3     1  LIG  -0.0620   0.1435 
23    H7       2.2235  -33.7630   25.2820 H       1  LIG   0.0570   0.0000 
24    H8       2.4436  -35.1154   26.3371 H       1  LIG   0.0495   0.0000 
25    H9       3.7654  -34.0491   26.0108 H       1  LIG   0.0519   0.0000 
26    O1      -1.2400  -35.9060   23.9770 O.2     1  LIG  -0.6361  -0.5700 
27    C13      2.3440  -38.7570   21.0360 C.3     1  LIG   0.1354   0.0690 
28    H10      3.1238  -38.3754   20.4296 H       1  LIG   0.0981   0.1000 
29    C14      2.9380  -39.8900   21.8010 C.3     1  LIG  -0.1181  -0.2000 
30    H11      3.8890  -40.1268   21.3997 H       1  LIG   0.0732   0.1000 
31    H12      3.0430  -39.6129   22.8177 H       1  LIG   0.0789   0.1000 
32    C15      1.6390  -40.0610   21.0880 C.3     1  LIG  -0.1196  -0.2000 
33    H13      0.6832  -39.9283   21.5242 H       1  LIG   0.0807   0.1000 
34    H14      1.5292  -40.4423   20.1061 H       1  LIG   0.0733   0.1000 
@<TRIPOS>BOND
1     2     1     ar
2     3     2     1
3     4     2     ar
4     5     4     1
5     6     4     ar
6     7     6     ar
7     8     7     1
8     9     8     1
9     10    8     1
10    11    10    1
11    12    11    ar
12    13    12    1
13    14    12    ar
14    15    14    1
15    16    14    ar
16    17    16    1
17    18    16    ar
18    19    11    ar
19    19    18    ar
20    20    19    1
21    21    1     ar
22    21    7     ar
23    21    20    1
24    22    6     1
25    23    22    1
26    24    22    1
27    25    22    1
28    26    10    2
29    27    20    1
30    28    27    1
31    29    27    1
32    30    29    1
33    31    29    1
34    32    27    1
35    32    29    1
36    33    32    1
37    34    32    1
@<TRIPOS>SUBSTRUCTURE
1   LIG    1    
 
########## Name        : 1VRT.lig
########## Description : AM1BCC_CHARGES =  -0.0002 ORIGINAL_CHARGES =  -0.0000

@<TRIPOS>MOLECULE
1VRT.lig
34    37    1     0     0    
SMALL
USER_CHARGES
@<TRIPOS>ATOM
1     N1       4.0540  -36.9310   22.2210 N.ar    1  LIG  -0.6650  -0.6200 
2     C1       4.9660  -36.2380   22.9390 C.ar    1  LIG   0.3947   0.1600 
3     H1       6.0082  -36.2811   22.6707 H       1  LIG   0.0281   0.1500 
4     C2       4.6240  -35.4500   24.0360 C.ar    1  LIG  -0.2334  -0.1500 
5     H2       5.3884  -34.9151   24.5740 H       1  LIG   0.1480   0.1500 
6     C3       3.3050  -35.3690   24.4150 C.ar    1  LIG  -0.0698  -0.1435 
7     C4       2.3460  -36.0770   23.6860 C.ar    1  LIG  -0.0398   0.1170 
8     N2       0.9890  -36.0280   24.1030 N.am    1  LIG  -0.4596  -0.5470 
9     H3       0.7643  -35.9928   25.0860 H       1  LIG   0.3311   0.3700 
10    C5      -0.1450  -36.0180   23.4080 C.2     1  LIG   0.7361   0.5438 
11    C6      -0.1190  -36.0770   21.8860 C.ar    1  LIG  -0.2550   0.0862 
12    C7      -1.1230  -35.3990   21.1890 C.ar    1  LIG  -0.0321  -0.1500 
13    H4      -1.7552  -34.6955   21.7041 H       1  LIG   0.1623   0.1500 
14    C8      -1.2960  -35.6300   19.8690 C.ar    1  LIG  -0.2723  -0.1500 
15    H5      -2.0662  -35.1073   19.3273 H       1  LIG   0.1522   0.1500 
16    C9      -0.4670  -36.5450   19.2400 C.ar    1  LIG   0.4373   0.1600 
17    H6      -0.5947  -36.7554   18.1915 H       1  LIG   0.0280   0.1500 
18    N3       0.5220  -37.2120   19.8740 N.ar    1  LIG  -0.6893  -0.6200 
19    C10      0.7040  -36.9790   21.1800 C.ar    1  LIG   0.6480   0.4100 
20    N4       1.7670  -37.6730   21.8260 N.pl3   1  LIG  -0.6924  -0.3690 
21    C11      2.7540  -36.8570   22.5840 C.ar    1  LIG   0.5805   0.4100 
22    C12      2.9040  -34.5090   25.6010 C.3     1  LIG  -0.0620   0.1435 
23    H7       2.2235  -33.7630   25.2820 H       1  LIG   0.0570   0.0000 
24    H8       2.4436  -35.1154   26.3371 H       1  LIG   0.0495   0.0000 
25    H9       3.7654  -34.0491   26.0108 H       1  LIG   0.0519   0.0000 
26    O1      -1.2400  -35.9060   23.9770 O.2     1  LIG  -0.6361  -0.5700 
27    C13      2.3440  -38.7570   21.0360 C.3     1  LIG   0.1354   0.0690 
28    H10      3.1238  -38.3754   20.4296 H       1  LIG   0.0981   0.1000 
29    C14      2.9380  -39.8900   21.8010 C.3     1  LIG  -0.1181  -0.2000 
30    H11      3.8890  -40.1268   21.3997 H       1  LIG   0.0732   0.1000 
31    H12      3.0430  -39.6129   22.8177 H       1  LIG   0.0789   0.1000 
32    C15      1.6390  -40.0610   21.0880 C.3     1  LIG  -0.1196  -0.2000 
33    H13      0.6832  -39.9283   21.5242 H       1  LIG   0.0807   0.1000 
34    H14      1.5292  -40.4423   20.1061 H       1  LIG   0.0733   0.1000 
@<TRIPOS>BOND
1     2     1     ar
2     3     2     1
3     4     2     ar
4     5     4     1
5     6     4     ar
6     7     6     ar
7     8     7     1
8     9     8     1
9     10    8     1
10    11    10    1
11    12    11    ar
12    13    12    1
13    14    12    ar
14    15    14    1
15    16    14    ar
16    17    16    1
17    18    16    ar
18    19    11    ar
19    19    18    ar
20    20    19    1
21    21    1     ar
22    21    7     ar
23    21    20    1
24    22    6     1
25    23    22    1
26    24    22    1
27    25    22    1
28    26    10    2
29    27    20    1
30    28    27    1
31    29    27    1
32    30    29    1
33    31    29    1
34    32    27    1
35    32    29    1
36    33    32    1
37    34    32    1
@<TRIPOS>SUBSTRUCTURE
1   LIG    1    
 
########## Name        : 1VRT.lig
########## Description : AM1BCC_CHARGES =  -0.0002 ORIGINAL_CHARGES =  -0.0000

@<TRIPOS>MOLECULE
1VRT.lig
34    37    1     0     0    
SMALL
USER_CHARGES
@<TRIPOS>ATOM
1     N1       4.0540  -36.9310   22.2210 N.ar    1  LIG  -0.6650  -0.6200 
2     C1       4.9660  -36.2380   22.9390 C.ar    1  LIG   0.3947   0.1600 
3     H1       6.0082  -36.2811   22.6707 H       1  LIG   0.0281   0.1500 
4     C2       4.6240  -35.4500   24.0360 C.ar    1  LIG  -0.2334  -0.1500 
5     H2       5.3884  -34.9151   24.5740 H       1  LIG   0.1480   0.1500 
6     C3       3.3050  -35.3690   24.4150 C.ar    1  LIG  -0.0698  -0.1435 
7     C4       2.3460  -36.0770   23.6860 C.ar    1  LIG  -0.0398   0.1170 
8     N2       0.9890  -36.0280   24.1030 N.am    1  LIG  -0.4596  -0.5470 
9     H3       0.7643  -35.9928   25.0860 H       1  LIG   0.3311   0.3700 
10    C5      -0.1450  -36.0180   23.4080 C.2     1  LIG   0.7361   0.5438 
11    C6      -0.1190  -36.0770   21.8860 C.ar    1  LIG  -0.2550   0.0862 
12    C7      -1.1230  -35.3990   21.1890 C.ar    1  LIG  -0.0321  -0.1500 
13    H4      -1.7552  -34.6955   21.7041 H       1  LIG   0.1623   0.1500 
14    C8      -1.2960  -35.6300   19.8690 C.ar    1  LIG  -0.2723  -0.1500 
15    H5      -2.0662  -35.1073   19.3273 H       1  LIG   0.1522   0.1500 
16    C9      -0.4670  -36.5450   19.2400 C.ar    1  LIG   0.4373   0.1600 
17    H6      -0.5947  -36.7554   18.1915 H       1  LIG   0.0280   0.1500 
18    N3       0.5220  -37.2120   19.8740 N.ar    1  LIG  -0.6893  -0.6200 
19    C10      0.7040  -36.9790   21.1800 C.ar    1  LIG   0.6480   0.4100 
20    N4       1.7670  -37.6730   21.8260 N.pl3   1  LIG  -0.6924  -0.3690 
21    C11      2.7540  -36.8570   22.5840 C.ar    1  LIG   0.5805   0.4100 
22    C12      2.9040  -34.5090   25.6010 C.3     1  LIG  -0.0620   0.1435 
23    H7       2.2235  -33.7630   25.2820 H       1  LIG   0.0570   0.0000 
24    H8       2.4436  -35.1154   26.3371 H       1  LIG   0.0495   0.0000 
25    H9       3.7654  -34.0491   26.0108 H       1  LIG   0.0519   0.0000 
26    O1      -1.2400  -35.9060   23.9770 O.2     1  LIG  -0.6361  -0.5700 
27    C13      2.3440  -38.7570   21.0360 C.3     1  LIG   0.1354   0.0690 
28    H10      3.1238  -38.3754   20.4296 H       1  LIG   0.0981   0.1000 
29    C14      2.9380  -39.8900   21.8010 C.3     1  LIG  -0.1181  -0.2000 
30    H11      3.8890  -40.1268   21.3997 H       1  LIG   0.0732   0.1000 
31    H12      3.0430  -39.6129   22.8177 H       1  LIG   0.0789   0.1000 
32    C15      1.6390  -40.0610   21.0880 C.3     1  LIG  -0.1196  -0.2000 
33    H13      0.6832  -39.9283   21.5242 H       1  LIG   0.0807   0.1000 
34    H14      1.5292  -40.4423   20.1061 H       1  LIG   0.0733   0.1000 
@<TRIPOS>BOND
1     2     1     ar
2     3     2     1
3     4     2     ar
4     5     4     1
5     6     4     ar
6     7     6     ar
7     8     7     1
8     9     8     1
9     10    8     1
10    11    10    1
11    12    11    ar
12    13    12    1
13    14    12    ar
14    15    14    1
15    16    14    ar
16    17    16    1
17    18    16    ar
18    19    11    ar
19    19    18    ar
20    20    19    1
21    21    1     ar
22    21    7     ar
23    21    20    1
24    22    6     1
25    23    22    1
26    24    22    1
27    25    22    1
28    26    10    2
29    27    20    1
30    28    27    1
31    29    27    1
32    30    29    1
33    31    29    1
34    32    27    1
35    32    29    1
36    33    32    1
37    34    32    1
@<TRIPOS>SUBSTRUCTURE
1   LIG    1    
 
########## Name        : 1VRT.lig
########## Description : AM1BCC_CHARGES =  -0.0002 ORIGINAL_CHARGES =  -0.0000

@<TRIPOS>MOLECULE
1VRT.lig
34    37    1     0     0    
SMALL
USER_CHARGES
@<TRIPOS>ATOM
1     N1       4.0540  -36.9310   22.2210 N.ar    1  LIG  -0.6650  -0.6200 
2     C1       4.9660  -36.2380   22.9390 C.ar    1  LIG   0.3947   0.1600 
3     H1       6.0082  -36.2811   22.6707 H       1  LIG   0.0281   0.1500 
4     C2       4.6240  -35.4500   24.0360 C.ar    1  LIG  -0.2334  -0.1500 
5     H2       5.3884  -34.9151   24.5740 H       1  LIG   0.1480   0.1500 
6     C3       3.3050  -35.3690   24.4150 C.ar    1  LIG  -0.0698  -0.1435 
7     C4       2.3460  -36.0770   23.6860 C.ar    1  LIG  -0.0398   0.1170 
8     N2       0.9890  -36.0280   24.1030 N.am    1  LIG  -0.4596  -0.5470 
9     H3       0.7643  -35.9928   25.0860 H       1  LIG   0.3311   0.3700 
10    C5      -0.1450  -36.0180   23.4080 C.2     1  LIG   0.7361   0.5438 
11    C6      -0.1190  -36.0770   21.8860 C.ar    1  LIG  -0.2550   0.0862 
12    C7      -1.1230  -35.3990   21.1890 C.ar    1  LIG  -0.0321  -0.1500 
13    H4      -1.7552  -34.6955   21.7041 H       1  LIG   0.1623   0.1500 
14    C8      -1.2960  -35.6300   19.8690 C.ar    1  LIG  -0.2723  -0.1500 
15    H5      -2.0662  -35.1073   19.3273 H       1  LIG   0.1522   0.1500 
16    C9      -0.4670  -36.5450   19.2400 C.ar    1  LIG   0.4373   0.1600 
17    H6      -0.5947  -36.7554   18.1915 H       1  LIG   0.0280   0.1500 
18    N3       0.5220  -37.2120   19.8740 N.ar    1  LIG  -0.6893  -0.6200 
19    C10      0.7040  -36.9790   21.1800 C.ar    1  LIG   0.6480   0.4100 
20    N4       1.7670  -37.6730   21.8260 N.pl3   1  LIG  -0.6924  -0.3690 
21    C11      2.7540  -36.8570   22.5840 C.ar    1  LIG   0.5805   0.4100 
22    C12      2.9040  -34.5090   25.6010 C.3     1  LIG  -0.0620   0.1435 
23    H7       2.2235  -33.7630   25.2820 H       1  LIG   0.0570   0.0000 
24    H8       2.4436  -35.1154   26.3371 H       1  LIG   0.0495   0.0000 
25    H9       3.7654  -34.0491   26.0108 H       1  LIG   0.0519   0.0000 
26    O1      -1.2400  -35.9060   23.9770 O.2     1  LIG  -0.6361  -0.5700 
27    C13      2.3440  -38.7570   21.0360 C.3     1  LIG   0.1354   0.0690 
28    H10      3.1238  -38.3754   20.4296 H       1  LIG   0.0981   0.1000 
29    C14      2.9380  -39.8900   21.8010 C.3     1  LIG  -0.1181  -0.2000 
30    H11      3.8890  -40.1268   21.3997 H       1  LIG   0.0732   0.1000 
31    H12      3.0430  -39.6129   22.8177 H       1  LIG   0.0789   0.1000 
32    C15      1.6390  -40.0610   21.0880 C.3     1  LIG  -0.1196  -0.2000 
33    H13      0.6832  -39.9283   21.5242 H       1  LIG   0.0807   0.1000 
34    H14      1.5292  -40.4423   20.1061 H       1  LIG   0.0733   0.1000 
@<TRIPOS>BOND
1     2     1     ar
2     3     2     1
3     4     2     ar
4     5     4     1
5     6     4     ar
6     7     6     ar
7     8     7     1
8     9     8     1
9     10    8     1
10    11    10    1
11    12    11    ar
12    13    12    1
13    14    12    ar
14    15    14    1
15    16    14    ar
16    17    16    1
17    18    16    ar
18    19    11    ar
19    19    18    ar
20    20    19    1
21    21    1     ar
22    21    7     ar
23    21    20    1
24    22    6     1
25    23    22    1
26    24    22    1
27    25    22    1
28    26    10    2
29    27    20    1
30    28    27    1
31    29    27    1
32    30    29    1
33    31    29    1
34    32    27    1
35    32    29    1
36    33    32    1
37    34    32    1
@<TRIPOS>SUBSTRUCTURE
1   LIG    1    
 
########## Name        : 1VRT.lig
########## Description : AM1BCC_CHARGES =  -0.0002 ORIGINAL_CHARGES =  -0.0000

@<TRIPOS>MOLECULE
1VRT.lig
34    37    1     0     0    
SMALL
USER_CHARGES
@<TRIPOS>ATOM
1     N1       4.0540  -36.9310   22.2210 N.ar    1  LIG  -0.6650  -0.6200 
2     C1       4.9660  -36.2380   22.9390 C.ar    1  LIG   0.3947   0.1600 
3     H1       6.0082  -36.2811   22.6707 H       1  LIG   0.0281   0.1500 
4     C2       4.6240  -35.4500   24.0360 C.ar    1  LIG  -0.2334  -0.1500 
5     H2       5.3884  -34.9151   24.5740 H       1  LIG   0.1480   0.1500 
6     C3       3.3050  -35.3690   24.4150 C.ar    1  LIG  -0.0698  -0.1435 
7     C4       2.3460  -36.0770   23.6860 C.ar    1  LIG  -0.0398   0.1170 
8     N2       0.9890  -36.0280   24.1030 N.am    1  LIG  -0.4596  -0.5470 
9     H3       0.7643  -35.9928   25.0860 H       1  LIG   0.3311   0.3700 
10    C5      -0.1450  -36.0180   23.4080 C.2     1  LIG   0.7361   0.5438 
11    C6      -0.1190  -36.0770   21.8860 C.ar    1  LIG  -0.2550   0.0862 
12    C7      -1.1230  -35.3990   21.1890 C.ar    1  LIG  -0.0321  -0.1500 
13    H4      -1.7552  -34.6955   21.7041 H       1  LIG   0.1623   0.1500 
14    C8      -1.2960  -35.6300   19.8690 C.ar    1  LIG  -0.2723  -0.1500 
15    H5      -2.0662  -35.1073   19.3273 H       1  LIG   0.1522   0.1500 
16    C9      -0.4670  -36.5450   19.2400 C.ar    1  LIG   0.4373   0.1600 
17    H6      -0.5947  -36.7554   18.1915 H       1  LIG   0.0280   0.1500 
18    N3       0.5220  -37.2120   19.8740 N.ar    1  LIG  -0.6893  -0.6200 
19    C10      0.7040  -36.9790   21.1800 C.ar    1  LIG   0.6480   0.4100 
20    N4       1.7670  -37.6730   21.8260 N.pl3   1  LIG  -0.6924  -0.3690 
21    C11      2.7540  -36.8570   22.5840 C.ar    1  LIG   0.5805   0.4100 
22    C12      2.9040  -34.5090   25.6010 C.3     1  LIG  -0.0620   0.1435 
23    H7       2.2235  -33.7630   25.2820 H       1  LIG   0.0570   0.0000 
24    H8       2.4436  -35.1154   26.3371 H       1  LIG   0.0495   0.0000 
25    H9       3.7654  -34.0491   26.0108 H       1  LIG   0.0519   0.0000 
26    O1      -1.2400  -35.9060   23.9770 O.2     1  LIG  -0.6361  -0.5700 
27    C13      2.3440  -38.7570   21.0360 C.3     1  LIG   0.1354   0.0690 
28    H10      3.1238  -38.3754   20.4296 H       1  LIG   0.0981   0.1000 
29    C14      2.9380  -39.8900   21.8010 C.3     1  LIG  -0.1181  -0.2000 
30    H11      3.8890  -40.1268   21.3997 H       1  LIG   0.0732   0.1000 
31    H12      3.0430  -39.6129   22.8177 H       1  LIG   0.0789   0.1000 
32    C15      1.6390  -40.0610   21.0880 C.3     1  LIG  -0.1196  -0.2000 
33    H13      0.6832  -39.9283   21.5242 H       1  LIG   0.0807   0.1000 
34    H14      1.5292  -40.4423   20.1061 H       1  LIG   0.0733   0.1000 
@<TRIPOS>BOND
1     2     1     ar
2     3     2     1
3     4     2     ar
4     5     4     1
5     6     4     ar
6     7     6     ar
7     8     7     1
8     9     8     1
9     10    8     1
10    11    10    1
11    12    11    ar
12    13    12    1
13    14    12    ar
14    15    14    1
15    16    14    ar
16    17    16    1
17    18    16    ar
18    19    11    ar
19    19    18    ar
20    20    19    1
21    21    1     ar
22    21    7     ar
23    21    20    1
24    22    6     1
25    23    22    1
26    24    22    1
27    25    22    1
28    26    10    2
29    27    20    1
30    28    27    1
31    29    27    1
32    30    29    1
33    31    29    1
34    32    27    1
35    32    29    1
36    33    32    1
37    34    32    1
@<TRIPOS>SUBSTRUCTURE
1   LIG    1    
 
########## Name        : 1VRT.lig
########## Description : AM1BCC_CHARGES =  -0.0002 ORIGINAL_CHARGES =  -0.0000

@<TRIPOS>MOLECULE
1VRT.lig
34    37    1     0     0    
SMALL
USER_CHARGES
@<TRIPOS>ATOM
1     N1       4.0540  -36.9310   22.2210 N.ar    1  LIG  -0.6650  -0.6200 
2     C1       4.9660  -36.2380   22.9390 C.ar    1  LIG   0.3947   0.1600 
3     H1       6.0082  -36.2811   22.6707 H       1  LIG   0.0281   0.1500 
4     C2       4.6240  -35.4500   24.0360 C.ar    1  LIG  -0.2334  -0.1500 
5     H2       5.3884  -34.9151   24.5740 H       1  LIG   0.1480   0.1500 
6     C3       3.3050  -35.3690   24.4150 C.ar    1  LIG  -0.0698  -0.1435 
7     C4       2.3460  -36.0770   23.6860 C.ar    1  LIG  -0.0398   0.1170 
8     N2       0.9890  -36.0280   24.1030 N.am    1  LIG  -0.4596  -0.5470 
9     H3       0.7643  -35.9928   25.0860 H       1  LIG   0.3311   0.3700 
10    C5      -0.1450  -36.0180   23.4080 C.2     1  LIG   0.7361   0.5438 
11    C6      -0.1190  -36.0770   21.8860 C.ar    1  LIG  -0.2550   0.0862 
12    C7      -1.1230  -35.3990   21.1890 C.ar    1  LIG  -0.0321  -0.1500 
13    H4      -1.7552  -34.6955   21.7041 H       1  LIG   0.1623   0.1500 
14    C8      -1.2960  -35.6300   19.8690 C.ar    1  LIG  -0.2723  -0.1500 
15    H5      -2.0662  -35.1073   19.3273 H       1  LIG   0.1522   0.1500 
16    C9      -0.4670  -36.5450   19.2400 C.ar    1  LIG   0.4373   0.1600 
17    H6      -0.5947  -36.7554   18.1915 H       1  LIG   0.0280   0.1500 
18    N3       0.5220  -37.2120   19.8740 N.ar    1  LIG  -0.6893  -0.6200 
19    C10      0.7040  -36.9790   21.1800 C.ar    1  LIG   0.6480   0.4100 
20    N4       1.7670  -37.6730   21.8260 N.pl3   1  LIG  -0.6924  -0.3690 
21    C11      2.7540  -36.8570   22.5840 C.ar    1  LIG   0.5805   0.4100 
22    C12      2.9040  -34.5090   25.6010 C.3     1  LIG  -0.0620   0.1435 
23    H7       2.2235  -33.7630   25.2820 H       1  LIG   0.0570   0.0000 
24    H8       2.4436  -35.1154   26.3371 H       1  LIG   0.0495   0.0000 
25    H9       3.7654  -34.0491   26.0108 H       1  LIG   0.0519   0.0000 
26    O1      -1.2400  -35.9060   23.9770 O.2     1  LIG  -0.6361  -0.5700 
27    C13      2.3440  -38.7570   21.0360 C.3     1  LIG   0.1354   0.0690 
28    H10      3.1238  -38.3754   20.4296 H       1  LIG   0.0981   0.1000 
29    C14      2.9380  -39.8900   21.8010 C.3     1  LIG  -0.1181  -0.2000 
30    H11      3.8890  -40.1268   21.3997 H       1  LIG   0.0732   0.1000 
31    H12      3.0430  -39.6129   22.8177 H       1  LIG   0.0789   0.1000 
32    C15      1.6390  -40.0610   21.0880 C.3     1  LIG  -0.1196  -0.2000 
33    H13      0.6832  -39.9283   21.5242 H       1  LIG   0.0807   0.1000 
34    H14      1.5292  -40.4423   20.1061 H       1  LIG   0.0733   0.1000 
@<TRIPOS>BOND
1     2     1     ar
2     3     2     1
3     4     2     ar
4     5     4     1
5     6     4     ar
6     7     6     ar
7     8     7     1
8     9     8     1
9     10    8     1
10    11    10    1
11    12    11    ar
12    13    12    1
13    14    12    ar
14    15    14    1
15    16    14    ar
16    17    16    1
17    18    16    ar
18    19    11    ar
19    19    18    ar
20    20    19    1
21    21    1     ar
22    21    7     ar
23    21    20    1
24    22    6     1
25    23    22    1
26    24    22    1
27    25    22    1
28    26    10    2
29    27    20    1
30    28    27    1
31    29    27    1
32    30    29    1
33    31    29    1
34    32    27    1
35    32    29    1
36    33    32    1
37    34    32    1
@<TRIPOS>SUBSTRUCTURE
1   LIG    1    
 
########## Name        : 1VRT.lig
########## Description : AM1BCC_CHARGES =  -0.0002 ORIGINAL_CHARGES =  -0.0000

@<TRIPOS>MOLECULE
1VRT.lig
34    37    1     0     0    
SMALL
USER_CHARGES
@<TRIPOS>ATOM
1     N1       4.0540  -36.9310   22.2210 N.ar    1  LIG  -0.6650  -0.6200 
2     C1       4.9660  -36.2380   22.9390 C.ar    1  LIG   0.3947   0.1600 
3     H1       6.0082  -36.2811   22.6707 H       1  LIG   0.0281   0.1500 
4     C2       4.6240  -35.4500   24.0360 C.ar    1  LIG  -0.2334  -0.1500 
5     H2       5.3884  -34.9151   24.5740 H       1  LIG   0.1480   0.1500 
6     C3       3.3050  -35.3690   24.4150 C.ar    1  LIG  -0.0698  -0.1435 
7     C4       2.3460  -36.0770   23.6860 C.ar    1  LIG  -0.0398   0.1170 
8     N2       0.9890  -36.0280   24.1030 N.am    1  LIG  -0.4596  -0.5470 
9     H3       0.7643  -35.9928   25.0860 H       1  LIG   0.3311   0.3700 
10    C5      -0.1450  -36.0180   23.4080 C.2     1  LIG   0.7361   0.5438 
11    C6      -0.1190  -36.0770   21.8860 C.ar    1  LIG  -0.2550   0.0862 
12    C7      -1.1230  -35.3990   21.1890 C.ar    1  LIG  -0.0321  -0.1500 
13    H4      -1.7552  -34.6955   21.7041 H       1  LIG   0.1623   0.1500 
14    C8      -1.2960  -35.6300   19.8690 C.ar    1  LIG  -0.2723  -0.1500 
15    H5      -2.0662  -35.1073   19.3273 H       1  LIG   0.1522   0.1500 
16    C9      -0.4670  -36.5450   19.2400 C.ar    1  LIG   0.4373   0.1600 
17    H6      -0.5947  -36.7554   18.1915 H       1  LIG   0.0280   0.1500 
18    N3       0.5220  -37.2120   19.8740 N.ar    1  LIG  -0.6893  -0.6200 
19    C10      0.7040  -36.9790   21.1800 C.ar    1  LIG   0.6480   0.4100 
20    N4       1.7670  -37.6730   21.8260 N.pl3   1  LIG  -0.6924  -0.3690 
21    C11      2.7540  -36.8570   22.5840 C.ar    1  LIG   0.5805   0.4100 
22    C12      2.9040  -34.5090   25.6010 C.3     1  LIG  -0.0620   0.1435 
23    H7       2.2235  -33.7630   25.2820 H       1  LIG   0.0570   0.0000 
24    H8       2.4436  -35.1154   26.3371 H       1  LIG   0.0495   0.0000 
25    H9       3.7654  -34.0491   26.0108 H       1  LIG   0.0519   0.0000 
26    O1      -1.2400  -35.9060   23.9770 O.2     1  LIG  -0.6361  -0.5700 
27    C13      2.3440  -38.7570   21.0360 C.3     1  LIG   0.1354   0.0690 
28    H10      3.1238  -38.3754   20.4296 H       1  LIG   0.0981   0.1000 
29    C14      2.9380  -39.8900   21.8010 C.3     1  LIG  -0.1181  -0.2000 
30    H11      3.8890  -40.1268   21.3997 H       1  LIG   0.0732   0.1000 
31    H12      3.0430  -39.6129   22.8177 H       1  LIG   0.0789   0.1000 
32    C15      1.6390  -40.0610   21.0880 C.3     1  LIG  -0.1196  -0.2000 
33    H13      0.6832  -39.9283   21.5242 H       1  LIG   0.0807   0.1000 
34    H14      1.5292  -40.4423   20.1061 H       1  LIG   0.0733   0.1000 
@<TRIPOS>BOND
1     2     1     ar
2     3     2     1
3     4     2     ar
4     5     4     1
5     6     4     ar
6     7     6     ar
7     8     7     1
8     9     8     1
9     10    8     1
10    11    10    1
11    12    11    ar
12    13    12    1
13    14    12    ar
14    15    14    1
15    16    14    ar
16    17    16    1
17    18    16    ar
18    19    11    ar
19    19    18    ar
20    20    19    1
21    21    1     ar
22    21    7     ar
23    21    20    1
24    22    6     1
25    23    22    1
26    24    22    1
27    25    22    1
28    26    10    2
29    27    20    1
30    28    27    1
31    29    27    1
32    30    29    1
33    31    29    1
34    32    27    1
35    32    29    1
36    33    32    1
37    34    32    1
@<TRIPOS>SUBSTRUCTURE
1   LIG    1    
 
########## Name        : 1VRT.lig
########## Description : AM1BCC_CHARGES =  -0.0002 ORIGINAL_CHARGES =  -0.0000

@<TRIPOS>MOLECULE
1VRT.lig
34    37    1     0     0    
SMALL
USER_CHARGES
@<TRIPOS>ATOM
1     N1       4.0540  -36.9310   22.2210 N.ar    1  LIG  -0.6650  -0.6200 
2     C1       4.9660  -36.2380   22.9390 C.ar    1  LIG   0.3947   0.1600 
3     H1       6.0082  -36.2811   22.6707 H       1  LIG   0.0281   0.1500 
4     C2       4.6240  -35.4500   24.0360 C.ar    1  LIG  -0.2334  -0.1500 
5     H2       5.3884  -34.9151   24.5740 H       1  LIG   0.1480   0.1500 
6     C3       3.3050  -35.3690   24.4150 C.ar    1  LIG  -0.0698  -0.1435 
7     C4       2.3460  -36.0770   23.6860 C.ar    1  LIG  -0.0398   0.1170 
8     N2       0.9890  -36.0280   24.1030 N.am    1  LIG  -0.4596  -0.5470 
9     H3       0.7643  -35.9928   25.0860 H       1  LIG   0.3311   0.3700 
10    C5      -0.1450  -36.0180   23.4080 C.2     1  LIG   0.7361   0.5438 
11    C6      -0.1190  -36.0770   21.8860 C.ar    1  LIG  -0.2550   0.0862 
12    C7      -1.1230  -35.3990   21.1890 C.ar    1  LIG  -0.0321  -0.1500 
13    H4      -1.7552  -34.6955   21.7041 H       1  LIG   0.1623   0.1500 
14    C8      -1.2960  -35.6300   19.8690 C.ar    1  LIG  -0.2723  -0.1500 
15    H5      -2.0662  -35.1073   19.3273 H       1  LIG   0.1522   0.1500 
16    C9      -0.4670  -36.5450   19.2400 C.ar    1  LIG   0.4373   0.1600 
17    H6      -0.5947  -36.7554   18.1915 H       1  LIG   0.0280   0.1500 
18    N3       0.5220  -37.2120   19.8740 N.ar    1  LIG  -0.6893  -0.6200 
19    C10      0.7040  -36.9790   21.1800 C.ar    1  LIG   0.6480   0.4100 
20    N4       1.7670  -37.6730   21.8260 N.pl3   1  LIG  -0.6924  -0.3690 
21    C11      2.7540  -36.8570   22.5840 C.ar    1  LIG   0.5805   0.4100 
22    C12      2.9040  -34.5090   25.6010 C.3     1  LIG  -0.0620   0.1435 
23    H7       2.2235  -33.7630   25.2820 H       1  LIG   0.0570   0.0000 
24    H8       2.4436  -35.1154   26.3371 H       1  LIG   0.0495   0.0000 
25    H9       3.7654  -34.0491   26.0108 H       1  LIG   0.0519   0.0000 
26    O1      -1.2400  -35.9060   23.9770 O.2     1  LIG  -0.6361  -0.5700 
27    C13      2.3440  -38.7570   21.0360 C.3     1  LIG   0.1354   0.0690 
28    H10      3.1238  -38.3754   20.4296 H       1  LIG   0.0981   0.1000 
29    C14      2.9380  -39.8900   21.8010 C.3     1  LIG  -0.1181  -0.2000 
30    H11      3.8890  -40.1268   21.3997 H       1  LIG   0.0732   0.1000 
31    H12      3.0430  -39.6129   22.8177 H       1  LIG   0.0789   0.1000 
32    C15      1.6390  -40.0610   21.0880 C.3     1  LIG  -0.1196  -0.2000 
33    H13      0.6832  -39.9283   21.5242 H       1  LIG   0.0807   0.1000 
34    H14      1.5292  -40.4423   20.1061 H       1  LIG   0.0733   0.1000 
@<TRIPOS>BOND
1     2     1     ar
2     3     2     1
3     4     2     ar
4     5     4     1
5     6     4     ar
6     7     6     ar
7     8     7     1
8     9     8     1
9     10    8     1
10    11    10    1
11    12    11    ar
12    13    12    1
13    14    12    ar
14    15    14    1
15    16    14    ar
16    17    16    1
17    18    16    ar
18    19    11    ar
19    19    18    ar
20    20    19    1
21    21    1     ar
22    21    7     ar
23    21    20    1
24    22    6     1
25    23    22    1
26    24    22    1
27    25    22    1
28    26    10    2
29    27    20    1
30    28    27    1
31    29    27    1
32    30    29    1
33    31    29    1
34    32    27    1
35    32    29    1
36    33    32    1
37    34    32    1
@<TRIPOS>SUBSTRUCTURE
1   LIG    1    
 
########## Name        : 1VRT.lig
########## Description : AM1BCC_CHARGES =  -0.0002 ORIGINAL_CHARGES =  -0.0000

@<TRIPOS>MOLECULE
1VRT.lig
34    37    1     0     0    
SMALL
USER_CHARGES
@<TRIPOS>ATOM
1     N1       4.0540  -36.9310   22.2210 N.ar    1  LIG  -0.6650  -0.6200 
2     C1       4.9660  -36.2380   22.9390 C.ar    1  LIG   0.3947   0.1600 
3     H1       6.0082  -36.2811   22.6707 H       1  LIG   0.0281   0.1500 
4     C2       4.6240  -35.4500   24.0360 C.ar    1  LIG  -0.2334  -0.1500 
5     H2       5.3884  -34.9151   24.5740 H       1  LIG   0.1480   0.1500 
6     C3       3.3050  -35.3690   24.4150 C.ar    1  LIG  -0.0698  -0.1435 
7     C4       2.3460  -36.0770   23.6860 C.ar    1  LIG  -0.0398   0.1170 
8     N2       0.9890  -36.0280   24.1030 N.am    1  LIG  -0.4596  -0.5470 
9     H3       0.7643  -35.9928   25.0860 H       1  LIG   0.3311   0.3700 
10    C5      -0.1450  -36.0180   23.4080 C.2     1  LIG   0.7361   0.5438 
11    C6      -0.1190  -36.0770   21.8860 C.ar    1  LIG  -0.2550   0.0862 
12    C7      -1.1230  -35.3990   21.1890 C.ar    1  LIG  -0.0321  -0.1500 
13    H4      -1.7552  -34.6955   21.7041 H       1  LIG   0.1623   0.1500 
14    C8      -1.2960  -35.6300   19.8690 C.ar    1  LIG  -0.2723  -0.1500 
15    H5      -2.0662  -35.1073   19.3273 H       1  LIG   0.1522   0.1500 
16    C9      -0.4670  -36.5450   19.2400 C.ar    1  LIG   0.4373   0.1600 
17    H6      -0.5947  -36.7554   18.1915 H       1  LIG   0.0280   0.1500 
18    N3       0.5220  -37.2120   19.8740 N.ar    1  LIG  -0.6893  -0.6200 
19    C10      0.7040  -36.9790   21.1800 C.ar    1  LIG   0.6480   0.4100 
20    N4       1.7670  -37.6730   21.8260 N.pl3   1  LIG  -0.6924  -0.3690 
21    C11      2.7540  -36.8570   22.5840 C.ar    1  LIG   0.5805   0.4100 
22    C12      2.9040  -34.5090   25.6010 C.3     1  LIG  -0.0620   0.1435 
23    H7       2.2235  -33.7630   25.2820 H       1  LIG   0.0570   0.0000 
24    H8       2.4436  -35.1154   26.3371 H       1  LIG   0.0495   0.0000 
25    H9       3.7654  -34.0491   26.0108 H       1  LIG   0.0519   0.0000 
26    O1      -1.2400  -35.9060   23.9770 O.2     1  LIG  -0.6361  -0.5700 
27    C13      2.3440  -38.7570   21.0360 C.3     1  LIG   0.1354   0.0690 
28    H10      3.1238  -38.3754   20.4296 H       1  LIG   0.0981   0.1000 
29    C14      2.9380  -39.8900   21.8010 C.3     1  LIG  -0.1181  -0.2000 
30    H11      3.8890  -40.1268   21.3997 H       1  LIG   0.0732   0.1000 
31    H12      3.0430  -39.6129   22.8177 H       1  LIG   0.0789   0.1000 
32    C15      1.6390  -40.0610   21.0880 C.3     1  LIG  -0.1196  -0.2000 
33    H13      0.6832  -39.9283   21.5242 H       1  LIG   0.0807   0.1000 
34    H14      1.5292  -40.4423   20.1061 H       1  LIG   0.0733   0.1000 
@<TRIPOS>BOND
1     2     1     ar
2     3     2     1
3     4     2     ar
4     5     4     1
5     6     4     ar
6     7     6     ar
7     8     7     1
8     9     8     1
9     10    8     1
10    11    10    1
11    12    11    ar
12    13    12    1
13    14    12    ar
14    15    14    1
15    16    14    ar
16    17    16    1
17    18    16    ar
18    19    11    ar
19    19    18    ar
20    20    19    1
21    21    1     ar
22    21    7     ar
23    21    20    1
24    22    6     1
25    23    22    1
26    24    22    1
27    25    22    1
28    26    10    2
29    27    20    1
30    28    27    1
31    29    27    1
32    30    29    1
33    31    29    1
34    32    27    1
35    32    29    1
36    33    32    1
37    34    32    1
@<TRIPOS>SUBSTRUCTURE
1   LIG    1    
 
########## Name        : 1VRT.lig
########## Description : AM1BCC_CHARGES =  -0.0002 ORIGINAL_CHARGES =  -0.0000

@<TRIPOS>MOLECULE
1VRT.lig
34    37    1     0     0    
SMALL
USER_CHARGES
@<TRIPOS>ATOM
1     N1       4.0540  -36.9310   22.2210 N.ar    1  LIG  -0.6650  -0.6200 
2     C1       4.9660  -36.2380   22.9390 C.ar    1  LIG   0.3947   0.1600 
3     H1       6.0082  -36.2811   22.6707 H       1  LIG   0.0281   0.1500 
4     C2       4.6240  -35.4500   24.0360 C.ar    1  LIG  -0.2334  -0.1500 
5     H2       5.3884  -34.9151   24.5740 H       1  LIG   0.1480   0.1500 
6     C3       3.3050  -35.3690   24.4150 C.ar    1  LIG  -0.0698  -0.1435 
7     C4       2.3460  -36.0770   23.6860 C.ar    1  LIG  -0.0398   0.1170 
8     N2       0.9890  -36.0280   24.1030 N.am    1  LIG  -0.4596  -0.5470 
9     H3       0.7643  -35.9928   25.0860 H       1  LIG   0.3311   0.3700 
10    C5      -0.1450  -36.0180   23.4080 C.2     1  LIG   0.7361   0.5438 
11    C6      -0.1190  -36.0770   21.8860 C.ar    1  LIG  -0.2550   0.0862 
12    C7      -1.1230  -35.3990   21.1890 C.ar    1  LIG  -0.0321  -0.1500 
13    H4      -1.7552  -34.6955   21.7041 H       1  LIG   0.1623   0.1500 
14    C8      -1.2960  -35.6300   19.8690 C.ar    1  LIG  -0.2723  -0.1500 
15    H5      -2.0662  -35.1073   19.3273 H       1  LIG   0.1522   0.1500 
16    C9      -0.4670  -36.5450   19.2400 C.ar    1  LIG   0.4373   0.1600 
17    H6      -0.5947  -36.7554   18.1915 H       1  LIG   0.0280   0.1500 
18    N3       0.5220  -37.2120   19.8740 N.ar    1  LIG  -0.6893  -0.6200 
19    C10      0.7040  -36.9790   21.1800 C.ar    1  LIG   0.6480   0.4100 
20    N4       1.7670  -37.6730   21.8260 N.pl3   1  LIG  -0.6924  -0.3690 
21    C11      2.7540  -36.8570   22.5840 C.ar    1  LIG   0.5805   0.4100 
22    C12      2.9040  -34.5090   25.6010 C.3     1  LIG  -0.0620   0.1435 
23    H7       2.2235  -33.7630   25.2820 H       1  LIG   0.0570   0.0000 
24    H8       2.4436  -35.1154   26.3371 H       1  LIG   0.0495   0.0000 
25    H9       3.7654  -34.0491   26.0108 H       1  LIG   0.0519   0.0000 
26    O1      -1.2400  -35.9060   23.9770 O.2     1  LIG  -0.6361  -0.5700 
27    C13      2.3440  -38.7570   21.0360 C.3     1  LIG   0.1354   0.0690 
28    H10      3.1238  -38.3754   20.4296 H       1  LIG   0.0981   0.1000 
29    C14      2.9380  -39.8900   21.8010 C.3     1  LIG  -0.1181  -0.2000 
30    H11      3.8890  -40.1268   21.3997 H       1  LIG   0.0732   0.1000 
31    H12      3.0430  -39.6129   22.8177 H       1  LIG   0.0789   0.1000 
32    C15      1.6390  -40.0610   21.0880 C.3     1  LIG  -0.1196  -0.2000 
33    H13      0.6832  -39.9283   21.5242 H       1  LIG   0.0807   0.1000 
34    H14      1.5292  -40.4423   20.1061 H       1  LIG   0.0733   0.1000 
@<TRIPOS>BOND
1     2     1     ar
2     3     2     1
3     4     2     ar
4     5     4     1
5     6     4     ar
6     7     6     ar
7     8     7     1
8     9     8     1
9     10    8     1
10    11    10    1
11    12    11    ar
12    13    12    1
13    14    12    ar
14    15    14    1
15    16    14    ar
16    17    16    1
17    18    16    ar
18    19    11    ar
19    19    18    ar
20    20    19    1
21    21    1     ar
22    21    7     ar
23    21    20    1
24    22    6     1
25    23    22    1
26    24    22    1
27    25    22    1
28    26    10    2
29    27    20    1
30    28    27    1
31    29    27    1
32    30    29    1
33    31    29    1
34    32    27    1
35    32    29    1
36    33    32    1
37    34    32    1
@<TRIPOS>SUBSTRUCTURE
1   LIG    1    
 
########## Name        : 1VRT.lig
########## Description : AM1BCC_CHARGES =  -0.0002 ORIGINAL_CHARGES =  -0.0000

@<TRIPOS>MOLECULE
1VRT.lig
34    37    1     0     0    
SMALL
USER_CHARGES
@<TRIPOS>ATOM
1     N1       4.0540  -36.9310   22.2210 N.ar    1  LIG  -0.6650  -0.6200 
2     C1       4.9660  -36.2380   22.9390 C.ar    1  LIG   0.3947   0.1600 
3     H1       6.0082  -36.2811   22.6707 H       1  LIG   0.0281   0.1500 
4     C2       4.6240  -35.4500   24.0360 C.ar    1  LIG  -0.2334  -0.1500 
5     H2       5.3884  -34.9151   24.5740 H       1  LIG   0.1480   0.1500 
6     C3       3.3050  -35.3690   24.4150 C.ar    1  LIG  -0.0698  -0.1435 
7     C4       2.3460  -36.0770   23.6860 C.ar    1  LIG  -0.0398   0.1170 
8     N2       0.9890  -36.0280   24.1030 N.am    1  LIG  -0.4596  -0.5470 
9     H3       0.7643  -35.9928   25.0860 H       1  LIG   0.3311   0.3700 
10    C5      -0.1450  -36.0180   23.4080 C.2     1  LIG   0.7361   0.5438 
11    C6      -0.1190  -36.0770   21.8860 C.ar    1  LIG  -0.2550   0.0862 
12    C7      -1.1230  -35.3990   21.1890 C.ar    1  LIG  -0.0321  -0.1500 
13    H4      -1.7552  -34.6955   21.7041 H       1  LIG   0.1623   0.1500 
14    C8      -1.2960  -35.6300   19.8690 C.ar    1  LIG  -0.2723  -0.1500 
15    H5      -2.0662  -35.1073   19.3273 H       1  LIG   0.1522   0.1500 
16    C9      -0.4670  -36.5450   19.2400 C.ar    1  LIG   0.4373   0.1600 
17    H6      -0.5947  -36.7554   18.1915 H       1  LIG   0.0280   0.1500 
18    N3       0.5220  -37.2120   19.8740 N.ar    1  LIG  -0.6893  -0.6200 
19    C10      0.7040  -36.9790   21.1800 C.ar    1  LIG   0.6480   0.4100 
20    N4       1.7670  -37.6730   21.8260 N.pl3   1  LIG  -0.6924  -0.3690 
21    C11      2.7540  -36.8570   22.5840 C.ar    1  LIG   0.5805   0.4100 
22    C12      2.9040  -34.5090   25.6010 C.3     1  LIG  -0.0620   0.1435 
23    H7       2.2235  -33.7630   25.2820 H       1  LIG   0.0570   0.0000 
24    H8       2.4436  -35.1154   26.3371 H       1  LIG   0.0495   0.0000 
25    H9       3.7654  -34.0491   26.0108 H       1  LIG   0.0519   0.0000 
26    O1      -1.2400  -35.9060   23.9770 O.2     1  LIG  -0.6361  -0.5700 
27    C13      2.3440  -38.7570   21.0360 C.3     1  LIG   0.1354   0.0690 
28    H10      3.1238  -38.3754   20.4296 H       1  LIG   0.0981   0.1000 
29    C14      2.9380  -39.8900   21.8010 C.3     1  LIG  -0.1181  -0.2000 
30    H11      3.8890  -40.1268   21.3997 H       1  LIG   0.0732   0.1000 
31    H12      3.0430  -39.6129   22.8177 H       1  LIG   0.0789   0.1000 
32    C15      1.6390  -40.0610   21.0880 C.3     1  LIG  -0.1196  -0.2000 
33    H13      0.6832  -39.9283   21.5242 H       1  LIG   0.0807   0.1000 
34    H14      1.5292  -40.4423   20.1061 H       1  LIG   0.0733   0.1000 
@<TRIPOS>BOND
1     2     1     ar
2     3     2     1
3     4     2     ar
4     5     4     1
5     6     4     ar
6     7     6     ar
7     8     7     1
8     9     8     1
9     10    8     1
10    11    10    1
11    12    11    ar
12    13    12    1
13    14    12    ar
14    15    14    1
15    16    14    ar
16    17    16    1
17    18    16    ar
18    19    11    ar
19    19    18    ar
20    20    19    1
21    21    1     ar
22    21    7     ar
23    21    20    1
24    22    6     1
25    23    22    1
26    24    22    1
27    25    22    1
28    26    10    2
29    27    20    1
30    28    27    1
31    29    27    1
32    30    29    1
33    31    29    1
34    32    27    1
35    32    29    1
36    33    32    1
37    34    32    1
@<TRIPOS>SUBSTRUCTURE
1   LIG    1    
 
########## Name        : 1VRT.lig
########## Description : AM1BCC_CHARGES =  -0.0002 ORIGINAL_CHARGES =  -0.0000

@<TRIPOS>MOLECULE
1VRT.lig
34    37    1     0     0    
SMALL
USER_CHARGES
@<TRIPOS>ATOM
1     N1       4.0540  -36.9310   22.2210 N.ar    1  LIG  -0.6650  -0.6200 
2     C1       4.9660  -36.2380   22.9390 C.ar    1  LIG   0.3947   0.1600 
3     H1       6.0082  -36.2811   22.6707 H       1  LIG   0.0281   0.1500 
4     C2       4.6240  -35.4500   24.0360 C.ar    1  LIG  -0.2334  -0.1500 
5     H2       5.3884  -34.9151   24.5740 H       1  LIG   0.1480   0.1500 
6     C3       3.3050  -35.3690   24.4150 C.ar    1  LIG  -0.0698  -0.1435 
7     C4       2.3460  -36.0770   23.6860 C.ar    1  LIG  -0.0398   0.1170 
8     N2       0.9890  -36.0280   24.1030 N.am    1  LIG  -0.4596  -0.5470 
9     H3       0.7643  -35.9928   25.0860 H       1  LIG   0.3311   0.3700 
10    C5      -0.1450  -36.0180   23.4080 C.2     1  LIG   0.7361   0.5438 
11    C6      -0.1190  -36.0770   21.8860 C.ar    1  LIG  -0.2550   0.0862 
12    C7      -1.1230  -35.3990   21.1890 C.ar    1  LIG  -0.0321  -0.1500 
13    H4      -1.7552  -34.6955   21.7041 H       1  LIG   0.1623   0.1500 
14    C8      -1.2960  -35.6300   19.8690 C.ar    1  LIG  -0.2723  -0.1500 
15    H5      -2.0662  -35.1073   19.3273 H       1  LIG   0.1522   0.1500 
16    C9      -0.4670  -36.5450   19.2400 C.ar    1  LIG   0.4373   0.1600 
17    H6      -0.5947  -36.7554   18.1915 H       1  LIG   0.0280   0.1500 
18    N3       0.5220  -37.2120   19.8740 N.ar    1  LIG  -0.6893  -0.6200 
19    C10      0.7040  -36.9790   21.1800 C.ar    1  LIG   0.6480   0.4100 
20    N4       1.7670  -37.6730   21.8260 N.pl3   1  LIG  -0.6924  -0.3690 
21    C11      2.7540  -36.8570   22.5840 C.ar    1  LIG   0.5805   0.4100 
22    C12      2.9040  -34.5090   25.6010 C.3     1  LIG  -0.0620   0.1435 
23    H7       2.2235  -33.7630   25.2820 H       1  LIG   0.0570   0.0000 
24    H8       2.4436  -35.1154   26.3371 H       1  LIG   0.0495   0.0000 
25    H9       3.7654  -34.0491   26.0108 H       1  LIG   0.0519   0.0000 
26    O1      -1.2400  -35.9060   23.9770 O.2     1  LIG  -0.6361  -0.5700 
27    C13      2.3440  -38.7570   21.0360 C.3     1  LIG   0.1354   0.0690 
28    H10      3.1238  -38.3754   20.4296 H       1  LIG   0.0981   0.1000 
29    C14      2.9380  -39.8900   21.8010 C.3     1  LIG  -0.1181  -0.2000 
30    H11      3.8890  -40.1268   21.3997 H       1  LIG   0.0732   0.1000 
31    H12      3.0430  -39.6129   22.8177 H       1  LIG   0.0789   0.1000 
32    C15      1.6390  -40.0610   21.0880 C.3     1  LIG  -0.1196  -0.2000 
33    H13      0.6832  -39.9283   21.5242 H       1  LIG   0.0807   0.1000 
34    H14      1.5292  -40.4423   20.1061 H       1  LIG   0.0733   0.1000 
@<TRIPOS>BOND
1     2     1     ar
2     3     2     1
3     4     2     ar
4     5     4     1
5     6     4     ar
6     7     6     ar
7     8     7     1
8     9     8     1
9     10    8     1
10    11    10    1
11    12    11    ar
12    13    12    1
13    14    12    ar
14    15    14    1
15    16    14    ar
16    17    16    1
17    18    16    ar
18    19    11    ar
19    19    18    ar
20    20    19    1
21    21    1     ar
22    21    7     ar
23    21    20    1
24    22    6     1
25    23    22    1
26    24    22    1
27    25    22    1
28    26    10    2
29    27    20    1
30    28    27    1
31    29    27    1
32    30    29    1
33    31    29    1
34    32    27    1
35    32    29    1
36    33    32    1
37    34    32    1
@<TRIPOS>SUBSTRUCTURE
1   LIG    1    
 
########## Name        : 1VRT.lig
########## Description : AM1BCC_CHARGES =  -0.0002 ORIGINAL_CHARGES =  -0.0000

@<TRIPOS>MOLECULE
1VRT.lig
34    37    1     0     0    
SMALL
USER_CHARGES
@<TRIPOS>ATOM
1     N1       4.0540  -36.9310   22.2210 N.ar    1  LIG  -0.6650  -0.6200 
2     C1       4.9660  -36.2380   22.9390 C.ar    1  LIG   0.3947   0.1600 
3     H1       6.0082  -36.2811   22.6707 H       1  LIG   0.0281   0.1500 
4     C2       4.6240  -35.4500   24.0360 C.ar    1  LIG  -0.2334  -0.1500 
5     H2       5.3884  -34.9151   24.5740 H       1  LIG   0.1480   0.1500 
6     C3       3.3050  -35.3690   24.4150 C.ar    1  LIG  -0.0698  -0.1435 
7     C4       2.3460  -36.0770   23.6860 C.ar    1  LIG  -0.0398   0.1170 
8     N2       0.9890  -36.0280   24.1030 N.am    1  LIG  -0.4596  -0.5470 
9     H3       0.7643  -35.9928   25.0860 H       1  LIG   0.3311   0.3700 
10    C5      -0.1450  -36.0180   23.4080 C.2     1  LIG   0.7361   0.5438 
11    C6      -0.1190  -36.0770   21.8860 C.ar    1  LIG  -0.2550   0.0862 
12    C7      -1.1230  -35.3990   21.1890 C.ar    1  LIG  -0.0321  -0.1500 
13    H4      -1.7552  -34.6955   21.7041 H       1  LIG   0.1623   0.1500 
14    C8      -1.2960  -35.6300   19.8690 C.ar    1  LIG  -0.2723  -0.1500 
15    H5      -2.0662  -35.1073   19.3273 H       1  LIG   0.1522   0.1500 
16    C9      -0.4670  -36.5450   19.2400 C.ar    1  LIG   0.4373   0.1600 
17    H6      -0.5947  -36.7554   18.1915 H       1  LIG   0.0280   0.1500 
18    N3       0.5220  -37.2120   19.8740 N.ar    1  LIG  -0.6893  -0.6200 
19    C10      0.7040  -36.9790   21.1800 C.ar    1  LIG   0.6480   0.4100 
20    N4       1.7670  -37.6730   21.8260 N.pl3   1  LIG  -0.6924  -0.3690 
21    C11      2.7540  -36.8570   22.5840 C.ar    1  LIG   0.5805   0.4100 
22    C12      2.9040  -34.5090   25.6010 C.3     1  LIG  -0.0620   0.1435 
23    H7       2.2235  -33.7630   25.2820 H       1  LIG   0.0570   0.0000 
24    H8       2.4436  -35.1154   26.3371 H       1  LIG   0.0495   0.0000 
25    H9       3.7654  -34.0491   26.0108 H       1  LIG   0.0519   0.0000 
26    O1      -1.2400  -35.9060   23.9770 O.2     1  LIG  -0.6361  -0.5700 
27    C13      2.3440  -38.7570   21.0360 C.3     1  LIG   0.1354   0.0690 
28    H10      3.1238  -38.3754   20.4296 H       1  LIG   0.0981   0.1000 
29    C14      2.9380  -39.8900   21.8010 C.3     1  LIG  -0.1181  -0.2000 
30    H11      3.8890  -40.1268   21.3997 H       1  LIG   0.0732   0.1000 
31    H12      3.0430  -39.6129   22.8177 H       1  LIG   0.0789   0.1000 
32    C15      1.6390  -40.0610   21.0880 C.3     1  LIG  -0.1196  -0.2000 
33    H13      0.6832  -39.9283   21.5242 H       1  LIG   0.0807   0.1000 
34    H14      1.5292  -40.4423   20.1061 H       1  LIG   0.0733   0.1000 
@<TRIPOS>BOND
1     2     1     ar
2     3     2     1
3     4     2     ar
4     5     4     1
5     6     4     ar
6     7     6     ar
7     8     7     1
8     9     8     1
9     10    8     1
10    11    10    1
11    12    11    ar
12    13    12    1
13    14    12    ar
14    15    14    1
15    16    14    ar
16    17    16    1
17    18    16    ar
18    19    11    ar
19    19    18    ar
20    20    19    1
21    21    1     ar
22    21    7     ar
23    21    20    1
24    22    6     1
25    23    22    1
26    24    22    1
27    25    22    1
28    26    10    2
29    27    20    1
30    28    27    1
31    29    27    1
32    30    29    1
33    31    29    1
34    32    27    1
35    32    29    1
36    33    32    1
37    34    32    1
@<TRIPOS>SUBSTRUCTURE
1   LIG    1    
 
########## Name        : 1VRT.lig
########## Description : AM1BCC_CHARGES =  -0.0002 ORIGINAL_CHARGES =  -0.0000

@<TRIPOS>MOLECULE
1VRT.lig
34    37    1     0     0    
SMALL
USER_CHARGES
@<TRIPOS>ATOM
1     N1       4.0540  -36.9310   22.2210 N.ar    1  LIG  -0.6650  -0.6200 
2     C1       4.9660  -36.2380   22.9390 C.ar    1  LIG   0.3947   0.1600 
3     H1       6.0082  -36.2811   22.6707 H       1  LIG   0.0281   0.1500 
4     C2       4.6240  -35.4500   24.0360 C.ar    1  LIG  -0.2334  -0.1500 
5     H2       5.3884  -34.9151   24.5740 H       1  LIG   0.1480   0.1500 
6     C3       3.3050  -35.3690   24.4150 C.ar    1  LIG  -0.0698  -0.1435 
7     C4       2.3460  -36.0770   23.6860 C.ar    1  LIG  -0.0398   0.1170 
8     N2       0.9890  -36.0280   24.1030 N.am    1  LIG  -0.4596  -0.5470 
9     H3       0.7643  -35.9928   25.0860 H       1  LIG   0.3311   0.3700 
10    C5      -0.1450  -36.0180   23.4080 C.2     1  LIG   0.7361   0.5438 
11    C6      -0.1190  -36.0770   21.8860 C.ar    1  LIG  -0.2550   0.0862 
12    C7      -1.1230  -35.3990   21.1890 C.ar    1  LIG  -0.0321  -0.1500 
13    H4      -1.7552  -34.6955   21.7041 H       1  LIG   0.1623   0.1500 
14    C8      -1.2960  -35.6300   19.8690 C.ar    1  LIG  -0.2723  -0.1500 
15    H5      -2.0662  -35.1073   19.3273 H       1  LIG   0.1522   0.1500 
16    C9      -0.4670  -36.5450   19.2400 C.ar    1  LIG   0.4373   0.1600 
17    H6      -0.5947  -36.7554   18.1915 H       1  LIG   0.0280   0.1500 
18    N3       0.5220  -37.2120   19.8740 N.ar    1  LIG  -0.6893  -0.6200 
19    C10      0.7040  -36.9790   21.1800 C.ar    1  LIG   0.6480   0.4100 
20    N4       1.7670  -37.6730   21.8260 N.pl3   1  LIG  -0.6924  -0.3690 
21    C11      2.7540  -36.8570   22.5840 C.ar    1  LIG   0.5805   0.4100 
22    C12      2.9040  -34.5090   25.6010 C.3     1  LIG  -0.0620   0.1435 
23    H7       2.2235  -33.7630   25.2820 H       1  LIG   0.0570   0.0000 
24    H8       2.4436  -35.1154   26.3371 H       1  LIG   0.0495   0.0000 
25    H9       3.7654  -34.0491   26.0108 H       1  LIG   0.0519   0.0000 
26    O1      -1.2400  -35.9060   23.9770 O.2     1  LIG  -0.6361  -0.5700 
27    C13      2.3440  -38.7570   21.0360 C.3     1  LIG   0.1354   0.0690 
28    H10      3.1238  -38.3754   20.4296 H       1  LIG   0.0981   0.1000 
29    C14      2.9380  -39.8900   21.8010 C.3     1  LIG  -0.1181  -0.2000 
30    H11      3.8890  -40.1268   21.3997 H       1  LIG   0.0732   0.1000 
31    H12      3.0430  -39.6129   22.8177 H       1  LIG   0.0789   0.1000 
32    C15      1.6390  -40.0610   21.0880 C.3     1  LIG  -0.1196  -0.2000 
33    H13      0.6832  -39.9283   21.5242 H       1  LIG   0.0807   0.1000 
34    H14      1.5292  -40.4423   20.1061 H       1  LIG   0.0733   0.1000 
@<TRIPOS>BOND
1     2     1     ar
2     3     2     1
3     4     2     ar
4     5     4     1
5     6     4     ar
6     7     6     ar
7     8     7     1
8     9     8     1
9     10    8     1
10    11    10    1
11    12    11    ar
12    13    12    1
13    14    12    ar
14    15    14    1
15    16    14    ar
16    17    16    1
17    18    16    ar
18    19    11    ar
19    19    18    ar
20    20    19    1
21    21    1     ar
22    21    7     ar
23    21    20    1
24    22    6     1
25    23    22    1
26    24    22    1
27    25    22    1
28    26    10    2
29    27    20    1
30    28    27    1
31    29    27    1
32    30    29    1
33    31    29    1
34    32    27    1
35    32    29    1
36    33    32    1
37    34    32    1
@<TRIPOS>SUBSTRUCTURE
1   LIG    1    
 
########## Name        : 1VRT.lig
########## Description : AM1BCC_CHARGES =  -0.0002 ORIGINAL_CHARGES =  -0.0000

@<TRIPOS>MOLECULE
1VRT.lig
34    37    1     0     0    
SMALL
USER_CHARGES
@<TRIPOS>ATOM
1     N1       4.0540  -36.9310   22.2210 N.ar    1  LIG  -0.6650  -0.6200 
2     C1       4.9660  -36.2380   22.9390 C.ar    1  LIG   0.3947   0.1600 
3     H1       6.0082  -36.2811   22.6707 H       1  LIG   0.0281   0.1500 
4     C2       4.6240  -35.4500   24.0360 C.ar    1  LIG  -0.2334  -0.1500 
5     H2       5.3884  -34.9151   24.5740 H       1  LIG   0.1480   0.1500 
6     C3       3.3050  -35.3690   24.4150 C.ar    1  LIG  -0.0698  -0.1435 
7     C4       2.3460  -36.0770   23.6860 C.ar    1  LIG  -0.0398   0.1170 
8     N2       0.9890  -36.0280   24.1030 N.am    1  LIG  -0.4596  -0.5470 
9     H3       0.7643  -35.9928   25.0860 H       1  LIG   0.3311   0.3700 
10    C5      -0.1450  -36.0180   23.4080 C.2     1  LIG   0.7361   0.5438 
11    C6      -0.1190  -36.0770   21.8860 C.ar    1  LIG  -0.2550   0.0862 
12    C7      -1.1230  -35.3990   21.1890 C.ar    1  LIG  -0.0321  -0.1500 
13    H4      -1.7552  -34.6955   21.7041 H       1  LIG   0.1623   0.1500 
14    C8      -1.2960  -35.6300   19.8690 C.ar    1  LIG  -0.2723  -0.1500 
15    H5      -2.0662  -35.1073   19.3273 H       1  LIG   0.1522   0.1500 
16    C9      -0.4670  -36.5450   19.2400 C.ar    1  LIG   0.4373   0.1600 
17    H6      -0.5947  -36.7554   18.1915 H       1  LIG   0.0280   0.1500 
18    N3       0.5220  -37.2120   19.8740 N.ar    1  LIG  -0.6893  -0.6200 
19    C10      0.7040  -36.9790   21.1800 C.ar    1  LIG   0.6480   0.4100 
20    N4       1.7670  -37.6730   21.8260 N.pl3   1  LIG  -0.6924  -0.3690 
21    C11      2.7540  -36.8570   22.5840 C.ar    1  LIG   0.5805   0.4100 
22    C12      2.9040  -34.5090   25.6010 C.3     1  LIG  -0.0620   0.1435 
23    H7       2.2235  -33.7630   25.2820 H       1  LIG   0.0570   0.0000 
24    H8       2.4436  -35.1154   26.3371 H       1  LIG   0.0495   0.0000 
25    H9       3.7654  -34.0491   26.0108 H       1  LIG   0.0519   0.0000 
26    O1      -1.2400  -35.9060   23.9770 O.2     1  LIG  -0.6361  -0.5700 
27    C13      2.3440  -38.7570   21.0360 C.3     1  LIG   0.1354   0.0690 
28    H10      3.1238  -38.3754   20.4296 H       1  LIG   0.0981   0.1000 
29    C14      2.9380  -39.8900   21.8010 C.3     1  LIG  -0.1181  -0.2000 
30    H11      3.8890  -40.1268   21.3997 H       1  LIG   0.0732   0.1000 
31    H12      3.0430  -39.6129   22.8177 H       1  LIG   0.0789   0.1000 
32    C15      1.6390  -40.0610   21.0880 C.3     1  LIG  -0.1196  -0.2000 
33    H13      0.6832  -39.9283   21.5242 H       1  LIG   0.0807   0.1000 
34    H14      1.5292  -40.4423   20.1061 H       1  LIG   0.0733   0.1000 
@<TRIPOS>BOND
1     2     1     ar
2     3     2     1
3     4     2     ar
4     5     4     1
5     6     4     ar
6     7     6     ar
7     8     7     1
8     9     8     1
9     10    8     1
10    11    10    1
11    12    11    ar
12    13    12    1
13    14    12    ar
14    15    14    1
15    16    14    ar
16    17    16    1
17    18    16    ar
18    19    11    ar
19    19    18    ar
20    20    19    1
21    21    1     ar
22    21    7     ar
23    21    20    1
24    22    6     1
25    23    22    1
26    24    22    1
27    25    22    1
28    26    10    2
29    27    20    1
30    28    27    1
31    29    27    1
32    30    29    1
33    31    29    1
34    32    27    1
35    32    29    1
36    33    32    1
37    34    32    1
@<TRIPOS>SUBSTRUCTURE
1   LIG    1    
 
########## Name        : 1VRT.lig
########## Description : AM1BCC_CHARGES =  -0.0002 ORIGINAL_CHARGES =  -0.0000

@<TRIPOS>MOLECULE
1VRT.lig
34    37    1     0     0    
SMALL
USER_CHARGES
@<TRIPOS>ATOM
1     N1       4.0540  -36.9310   22.2210 N.ar    1  LIG  -0.6650  -0.6200 
2     C1       4.9660  -36.2380   22.9390 C.ar    1  LIG   0.3947   0.1600 
3     H1       6.0082  -36.2811   22.6707 H       1  LIG   0.0281   0.1500 
4     C2       4.6240  -35.4500   24.0360 C.ar    1  LIG  -0.2334  -0.1500 
5     H2       5.3884  -34.9151   24.5740 H       1  LIG   0.1480   0.1500 
6     C3       3.3050  -35.3690   24.4150 C.ar    1  LIG  -0.0698  -0.1435 
7     C4       2.3460  -36.0770   23.6860 C.ar    1  LIG  -0.0398   0.1170 
8     N2       0.9890  -36.0280   24.1030 N.am    1  LIG  -0.4596  -0.5470 
9     H3       0.7643  -35.9928   25.0860 H       1  LIG   0.3311   0.3700 
10    C5      -0.1450  -36.0180   23.4080 C.2     1  LIG   0.7361   0.5438 
11    C6      -0.1190  -36.0770   21.8860 C.ar    1  LIG  -0.2550   0.0862 
12    C7      -1.1230  -35.3990   21.1890 C.ar    1  LIG  -0.0321  -0.1500 
13    H4      -1.7552  -34.6955   21.7041 H       1  LIG   0.1623   0.1500 
14    C8      -1.2960  -35.6300   19.8690 C.ar    1  LIG  -0.2723  -0.1500 
15    H5      -2.0662  -35.1073   19.3273 H       1  LIG   0.1522   0.1500 
16    C9      -0.4670  -36.5450   19.2400 C.ar    1  LIG   0.4373   0.1600 
17    H6      -0.5947  -36.7554   18.1915 H       1  LIG   0.0280   0.1500 
18    N3       0.5220  -37.2120   19.8740 N.ar    1  LIG  -0.6893  -0.6200 
19    C10      0.7040  -36.9790   21.1800 C.ar    1  LIG   0.6480   0.4100 
20    N4       1.7670  -37.6730   21.8260 N.pl3   1  LIG  -0.6924  -0.3690 
21    C11      2.7540  -36.8570   22.5840 C.ar    1  LIG   0.5805   0.4100 
22    C12      2.9040  -34.5090   25.6010 C.3     1  LIG  -0.0620   0.1435 
23    H7       2.2235  -33.7630   25.2820 H       1  LIG   0.0570   0.0000 
24    H8       2.4436  -35.1154   26.3371 H       1  LIG   0.0495   0.0000 
25    H9       3.7654  -34.0491   26.0108 H       1  LIG   0.0519   0.0000 
26    O1      -1.2400  -35.9060   23.9770 O.2     1  LIG  -0.6361  -0.5700 
27    C13      2.3440  -38.7570   21.0360 C.3     1  LIG   0.1354   0.0690 
28    H10      3.1238  -38.3754   20.4296 H       1  LIG   0.0981   0.1000 
29    C14      2.9380  -39.8900   21.8010 C.3     1  LIG  -0.1181  -0.2000 
30    H11      3.8890  -40.1268   21.3997 H       1  LIG   0.0732   0.1000 
31    H12      3.0430  -39.6129   22.8177 H       1  LIG   0.0789   0.1000 
32    C15      1.6390  -40.0610   21.0880 C.3     1  LIG  -0.1196  -0.2000 
33    H13      0.6832  -39.9283   21.5242 H       1  LIG   0.0807   0.1000 
34    H14      1.5292  -40.4423   20.1061 H       1  LIG   0.0733   0.1000 
@<TRIPOS>BOND
1     2     1     ar
2     3     2     1
3     4     2     ar
4     5     4     1
5     6     4     ar
6     7     6     ar
7     8     7     1
8     9     8     1
9     10    8     1
10    11    10    1
11    12    11    ar
12    13    12    1
13    14    12    ar
14    15    14    1
15    16    14    ar
16    17    16    1
17    18    16    ar
18    19    11    ar
19    19    18    ar
20    20    19    1
21    21    1     ar
22    21    7     ar
23    21    20    1
24    22    6     1
25    23    22    1
26    24    22    1
27    25    22    1
28    26    10    2
29    27    20    1
30    28    27    1
31    29    27    1
32    30    29    1
33    31    29    1
34    32    27    1
35    32    29    1
36    33    32    1
37    34    32    1
@<TRIPOS>SUBSTRUCTURE
1   LIG    1    
 
########## Name        : 1VRT.lig
########## Description : AM1BCC_CHARGES =  -0.0002 ORIGINAL_CHARGES =  -0.0000

@<TRIPOS>MOLECULE
1VRT.lig
34    37    1     0     0    
SMALL
USER_CHARGES
@<TRIPOS>ATOM
1     N1       4.0540  -36.9310   22.2210 N.ar    1  LIG  -0.6650  -0.6200 
2     C1       4.9660  -36.2380   22.9390 C.ar    1  LIG   0.3947   0.1600 
3     H1       6.0082  -36.2811   22.6707 H       1  LIG   0.0281   0.1500 
4     C2       4.6240  -35.4500   24.0360 C.ar    1  LIG  -0.2334  -0.1500 
5     H2       5.3884  -34.9151   24.5740 H       1  LIG   0.1480   0.1500 
6     C3       3.3050  -35.3690   24.4150 C.ar    1  LIG  -0.0698  -0.1435 
7     C4       2.3460  -36.0770   23.6860 C.ar    1  LIG  -0.0398   0.1170 
8     N2       0.9890  -36.0280   24.1030 N.am    1  LIG  -0.4596  -0.5470 
9     H3       0.7643  -35.9928   25.0860 H       1  LIG   0.3311   0.3700 
10    C5      -0.1450  -36.0180   23.4080 C.2     1  LIG   0.7361   0.5438 
11    C6      -0.1190  -36.0770   21.8860 C.ar    1  LIG  -0.2550   0.0862 
12    C7      -1.1230  -35.3990   21.1890 C.ar    1  LIG  -0.0321  -0.1500 
13    H4      -1.7552  -34.6955   21.7041 H       1  LIG   0.1623   0.1500 
14    C8      -1.2960  -35.6300   19.8690 C.ar    1  LIG  -0.2723  -0.1500 
15    H5      -2.0662  -35.1073   19.3273 H       1  LIG   0.1522   0.1500 
16    C9      -0.4670  -36.5450   19.2400 C.ar    1  LIG   0.4373   0.1600 
17    H6      -0.5947  -36.7554   18.1915 H       1  LIG   0.0280   0.1500 
18    N3       0.5220  -37.2120   19.8740 N.ar    1  LIG  -0.6893  -0.6200 
19    C10      0.7040  -36.9790   21.1800 C.ar    1  LIG   0.6480   0.4100 
20    N4       1.7670  -37.6730   21.8260 N.pl3   1  LIG  -0.6924  -0.3690 
21    C11      2.7540  -36.8570   22.5840 C.ar    1  LIG   0.5805   0.4100 
22    C12      2.9040  -34.5090   25.6010 C.3     1  LIG  -0.0620   0.1435 
23    H7       2.2235  -33.7630   25.2820 H       1  LIG   0.0570   0.0000 
24    H8       2.4436  -35.1154   26.3371 H       1  LIG   0.0495   0.0000 
25    H9       3.7654  -34.0491   26.0108 H       1  LIG   0.0519   0.0000 
26    O1      -1.2400  -35.9060   23.9770 O.2     1  LIG  -0.6361  -0.5700 
27    C13      2.3440  -38.7570   21.0360 C.3     1  LIG   0.1354   0.0690 
28    H10      3.1238  -38.3754   20.4296 H       1  LIG   0.0981   0.1000 
29    C14      2.9380  -39.8900   21.8010 C.3     1  LIG  -0.1181  -0.2000 
30    H11      3.8890  -40.1268   21.3997 H       1  LIG   0.0732   0.1000 
31    H12      3.0430  -39.6129   22.8177 H       1  LIG   0.0789   0.1000 
32    C15      1.6390  -40.0610   21.0880 C.3     1  LIG  -0.1196  -0.2000 
33    H13      0.6832  -39.9283   21.5242 H       1  LIG   0.0807   0.1000 
34    H14      1.5292  -40.4423   20.1061 H       1  LIG   0.0733   0.1000 
@<TRIPOS>BOND
1     2     1     ar
2     3     2     1
3     4     2     ar
4     5     4     1
5     6     4     ar
6     7     6     ar
7     8     7     1
8     9     8     1
9     10    8     1
10    11    10    1
11    12    11    ar
12    13    12    1
13    14    12    ar
14    15    14    1
15    16    14    ar
16    17    16    1
17    18    16    ar
18    19    11    ar
19    19    18    ar
20    20    19    1
21    21    1     ar
22    21    7     ar
23    21    20    1
24    22    6     1
25    23    22    1
26    24    22    1
27    25    22    1
28    26    10    2
29    27    20    1
30    28    27    1
31    29    27    1
32    30    29    1
33    31    29    1
34    32    27    1
35    32    29    1
36    33    32    1
37    34    32    1
@<TRIPOS>SUBSTRUCTURE
1   LIG    1    
 
########## Name        : 1VRT.lig
########## Description : AM1BCC_CHARGES =  -0.0002 ORIGINAL_CHARGES =  -0.0000

@<TRIPOS>MOLECULE
1VRT.lig
34    37    1     0     0    
SMALL
USER_CHARGES
@<TRIPOS>ATOM
1     N1       4.0540  -36.9310   22.2210 N.ar    1  LIG  -0.6650  -0.6200 
2     C1       4.9660  -36.2380   22.9390 C.ar    1  LIG   0.3947   0.1600 
3     H1       6.0082  -36.2811   22.6707 H       1  LIG   0.0281   0.1500 
4     C2       4.6240  -35.4500   24.0360 C.ar    1  LIG  -0.2334  -0.1500 
5     H2       5.3884  -34.9151   24.5740 H       1  LIG   0.1480   0.1500 
6     C3       3.3050  -35.3690   24.4150 C.ar    1  LIG  -0.0698  -0.1435 
7     C4       2.3460  -36.0770   23.6860 C.ar    1  LIG  -0.0398   0.1170 
8     N2       0.9890  -36.0280   24.1030 N.am    1  LIG  -0.4596  -0.5470 
9     H3       0.7643  -35.9928   25.0860 H       1  LIG   0.3311   0.3700 
10    C5      -0.1450  -36.0180   23.4080 C.2     1  LIG   0.7361   0.5438 
11    C6      -0.1190  -36.0770   21.8860 C.ar    1  LIG  -0.2550   0.0862 
12    C7      -1.1230  -35.3990   21.1890 C.ar    1  LIG  -0.0321  -0.1500 
13    H4      -1.7552  -34.6955   21.7041 H       1  LIG   0.1623   0.1500 
14    C8      -1.2960  -35.6300   19.8690 C.ar    1  LIG  -0.2723  -0.1500 
15    H5      -2.0662  -35.1073   19.3273 H       1  LIG   0.1522   0.1500 
16    C9      -0.4670  -36.5450   19.2400 C.ar    1  LIG   0.4373   0.1600 
17    H6      -0.5947  -36.7554   18.1915 H       1  LIG   0.0280   0.1500 
18    N3       0.5220  -37.2120   19.8740 N.ar    1  LIG  -0.6893  -0.6200 
19    C10      0.7040  -36.9790   21.1800 C.ar    1  LIG   0.6480   0.4100 
20    N4       1.7670  -37.6730   21.8260 N.pl3   1  LIG  -0.6924  -0.3690 
21    C11      2.7540  -36.8570   22.5840 C.ar    1  LIG   0.5805   0.4100 
22    C12      2.9040  -34.5090   25.6010 C.3     1  LIG  -0.0620   0.1435 
23    H7       2.2235  -33.7630   25.2820 H       1  LIG   0.0570   0.0000 
24    H8       2.4436  -35.1154   26.3371 H       1  LIG   0.0495   0.0000 
25    H9       3.7654  -34.0491   26.0108 H       1  LIG   0.0519   0.0000 
26    O1      -1.2400  -35.9060   23.9770 O.2     1  LIG  -0.6361  -0.5700 
27    C13      2.3440  -38.7570   21.0360 C.3     1  LIG   0.1354   0.0690 
28    H10      3.1238  -38.3754   20.4296 H       1  LIG   0.0981   0.1000 
29    C14      2.9380  -39.8900   21.8010 C.3     1  LIG  -0.1181  -0.2000 
30    H11      3.8890  -40.1268   21.3997 H       1  LIG   0.0732   0.1000 
31    H12      3.0430  -39.6129   22.8177 H       1  LIG   0.0789   0.1000 
32    C15      1.6390  -40.0610   21.0880 C.3     1  LIG  -0.1196  -0.2000 
33    H13      0.6832  -39.9283   21.5242 H       1  LIG   0.0807   0.1000 
34    H14      1.5292  -40.4423   20.1061 H       1  LIG   0.0733   0.1000 
@<TRIPOS>BOND
1     2     1     ar
2     3     2     1
3     4     2     ar
4     5     4     1
5     6     4     ar
6     7     6     ar
7     8     7     1
8     9     8     1
9     10    8     1
10    11    10    1
11    12    11    ar
12    13    12    1
13    14    12    ar
14    15    14    1
15    16    14    ar
16    17    16    1
17    18    16    ar
18    19    11    ar
19    19    18    ar
20    20    19    1
21    21    1     ar
22    21    7     ar
23    21    20    1
24    22    6     1
25    23    22    1
26    24    22    1
27    25    22    1
28    26    10    2
29    27    20    1
30    28    27    1
31    29    27    1
32    30    29    1
33    31    29    1
34    32    27    1
35    32    29    1
36    33    32    1
37    34    32    1
@<TRIPOS>SUBSTRUCTURE
1   LIG    1    
 
########## Name        : 1VRT.lig
########## Description : AM1BCC_CHARGES =  -0.0002 ORIGINAL_CHARGES =  -0.0000

@<TRIPOS>MOLECULE
1VRT.lig
34    37    1     0     0    
SMALL
USER_CHARGES
@<TRIPOS>ATOM
1     N1       4.0540  -36.9310   22.2210 N.ar    1  LIG  -0.6650  -0.6200 
2     C1       4.9660  -36.2380   22.9390 C.ar    1  LIG   0.3947   0.1600 
3     H1       6.0082  -36.2811   22.6707 H       1  LIG   0.0281   0.1500 
4     C2       4.6240  -35.4500   24.0360 C.ar    1  LIG  -0.2334  -0.1500 
5     H2       5.3884  -34.9151   24.5740 H       1  LIG   0.1480   0.1500 
6     C3       3.3050  -35.3690   24.4150 C.ar    1  LIG  -0.0698  -0.1435 
7     C4       2.3460  -36.0770   23.6860 C.ar    1  LIG  -0.0398   0.1170 
8     N2       0.9890  -36.0280   24.1030 N.am    1  LIG  -0.4596  -0.5470 
9     H3       0.7643  -35.9928   25.0860 H       1  LIG   0.3311   0.3700 
10    C5      -0.1450  -36.0180   23.4080 C.2     1  LIG   0.7361   0.5438 
11    C6      -0.1190  -36.0770   21.8860 C.ar    1  LIG  -0.2550   0.0862 
12    C7      -1.1230  -35.3990   21.1890 C.ar    1  LIG  -0.0321  -0.1500 
13    H4      -1.7552  -34.6955   21.7041 H       1  LIG   0.1623   0.1500 
14    C8      -1.2960  -35.6300   19.8690 C.ar    1  LIG  -0.2723  -0.1500 
15    H5      -2.0662  -35.1073   19.3273 H       1  LIG   0.1522   0.1500 
16    C9      -0.4670  -36.5450   19.2400 C.ar    1  LIG   0.4373   0.1600 
17    H6      -0.5947  -36.7554   18.1915 H       1  LIG   0.0280   0.1500 
18    N3       0.5220  -37.2120   19.8740 N.ar    1  LIG  -0.6893  -0.6200 
19    C10      0.7040  -36.9790   21.1800 C.ar    1  LIG   0.6480   0.4100 
20    N4       1.7670  -37.6730   21.8260 N.pl3   1  LIG  -0.6924  -0.3690 
21    C11      2.7540  -36.8570   22.5840 C.ar    1  LIG   0.5805   0.4100 
22    C12      2.9040  -34.5090   25.6010 C.3     1  LIG  -0.0620   0.1435 
23    H7       2.2235  -33.7630   25.2820 H       1  LIG   0.0570   0.0000 
24    H8       2.4436  -35.1154   26.3371 H       1  LIG   0.0495   0.0000 
25    H9       3.7654  -34.0491   26.0108 H       1  LIG   0.0519   0.0000 
26    O1      -1.2400  -35.9060   23.9770 O.2     1  LIG  -0.6361  -0.5700 
27    C13      2.3440  -38.7570   21.0360 C.3     1  LIG   0.1354   0.0690 
28    H10      3.1238  -38.3754   20.4296 H       1  LIG   0.0981   0.1000 
29    C14      2.9380  -39.8900   21.8010 C.3     1  LIG  -0.1181  -0.2000 
30    H11      3.8890  -40.1268   21.3997 H       1  LIG   0.0732   0.1000 
31    H12      3.0430  -39.6129   22.8177 H       1  LIG   0.0789   0.1000 
32    C15      1.6390  -40.0610   21.0880 C.3     1  LIG  -0.1196  -0.2000 
33    H13      0.6832  -39.9283   21.5242 H       1  LIG   0.0807   0.1000 
34    H14      1.5292  -40.4423   20.1061 H       1  LIG   0.0733   0.1000 
@<TRIPOS>BOND
1     2     1     ar
2     3     2     1
3     4     2     ar
4     5     4     1
5     6     4     ar
6     7     6     ar
7     8     7     1
8     9     8     1
9     10    8     1
10    11    10    1
11    12    11    ar
12    13    12    1
13    14    12    ar
14    15    14    1
15    16    14    ar
16    17    16    1
17    18    16    ar
18    19    11    ar
19    19    18    ar
20    20    19    1
21    21    1     ar
22    21    7     ar
23    21    20    1
24    22    6     1
25    23    22    1
26    24    22    1
27    25    22    1
28    26    10    2
29    27    20    1
30    28    27    1
31    29    27    1
32    30    29    1
33    31    29    1
34    32    27    1
35    32    29    1
36    33    32    1
37    34    32    1
@<TRIPOS>SUBSTRUCTURE
1   LIG    1    
 
########## Name        : 1VRT.lig
########## Description : AM1BCC_CHARGES =  -0.0002 ORIGINAL_CHARGES =  -0.0000

@<TRIPOS>MOLECULE
1VRT.lig
34    37    1     0     0    
SMALL
USER_CHARGES
@<TRIPOS>ATOM
1     N1       4.0540  -36.9310   22.2210 N.ar    1  LIG  -0.6650  -0.6200 
2     C1       4.9660  -36.2380   22.9390 C.ar    1  LIG   0.3947   0.1600 
3     H1       6.0082  -36.2811   22.6707 H       1  LIG   0.0281   0.1500 
4     C2       4.6240  -35.4500   24.0360 C.ar    1  LIG  -0.2334  -0.1500 
5     H2       5.3884  -34.9151   24.5740 H       1  LIG   0.1480   0.1500 
6     C3       3.3050  -35.3690   24.4150 C.ar    1  LIG  -0.0698  -0.1435 
7     C4       2.3460  -36.0770   23.6860 C.ar    1  LIG  -0.0398   0.1170 
8     N2       0.9890  -36.0280   24.1030 N.am    1  LIG  -0.4596  -0.5470 
9     H3       0.7643  -35.9928   25.0860 H       1  LIG   0.3311   0.3700 
10    C5      -0.1450  -36.0180   23.4080 C.2     1  LIG   0.7361   0.5438 
11    C6      -0.1190  -36.0770   21.8860 C.ar    1  LIG  -0.2550   0.0862 
12    C7      -1.1230  -35.3990   21.1890 C.ar    1  LIG  -0.0321  -0.1500 
13    H4      -1.7552  -34.6955   21.7041 H       1  LIG   0.1623   0.1500 
14    C8      -1.2960  -35.6300   19.8690 C.ar    1  LIG  -0.2723  -0.1500 
15    H5      -2.0662  -35.1073   19.3273 H       1  LIG   0.1522   0.1500 
16    C9      -0.4670  -36.5450   19.2400 C.ar    1  LIG   0.4373   0.1600 
17    H6      -0.5947  -36.7554   18.1915 H       1  LIG   0.0280   0.1500 
18    N3       0.5220  -37.2120   19.8740 N.ar    1  LIG  -0.6893  -0.6200 
19    C10      0.7040  -36.9790   21.1800 C.ar    1  LIG   0.6480   0.4100 
20    N4       1.7670  -37.6730   21.8260 N.pl3   1  LIG  -0.6924  -0.3690 
21    C11      2.7540  -36.8570   22.5840 C.ar    1  LIG   0.5805   0.4100 
22    C12      2.9040  -34.5090   25.6010 C.3     1  LIG  -0.0620   0.1435 
23    H7       2.2235  -33.7630   25.2820 H       1  LIG   0.0570   0.0000 
24    H8       2.4436  -35.1154   26.3371 H       1  LIG   0.0495   0.0000 
25    H9       3.7654  -34.0491   26.0108 H       1  LIG   0.0519   0.0000 
26    O1      -1.2400  -35.9060   23.9770 O.2     1  LIG  -0.6361  -0.5700 
27    C13      2.3440  -38.7570   21.0360 C.3     1  LIG   0.1354   0.0690 
28    H10      3.1238  -38.3754   20.4296 H       1  LIG   0.0981   0.1000 
29    C14      2.9380  -39.8900   21.8010 C.3     1  LIG  -0.1181  -0.2000 
30    H11      3.8890  -40.1268   21.3997 H       1  LIG   0.0732   0.1000 
31    H12      3.0430  -39.6129   22.8177 H       1  LIG   0.0789   0.1000 
32    C15      1.6390  -40.0610   21.0880 C.3     1  LIG  -0.1196  -0.2000 
33    H13      0.6832  -39.9283   21.5242 H       1  LIG   0.0807   0.1000 
34    H14      1.5292  -40.4423   20.1061 H       1  LIG   0.0733   0.1000 
@<TRIPOS>BOND
1     2     1     ar
2     3     2     1
3     4     2     ar
4     5     4     1
5     6     4     ar
6     7     6     ar
7     8     7     1
8     9     8     1
9     10    8     1
10    11    10    1
11    12    11    ar
12    13    12    1
13    14    12    ar
14    15    14    1
15    16    14    ar
16    17    16    1
17    18    16    ar
18    19    11    ar
19    19    18    ar
20    20    19    1
21    21    1     ar
22    21    7     ar
23    21    20    1
24    22    6     1
25    23    22    1
26    24    22    1
27    25    22    1
28    26    10    2
29    27    20    1
30    28    27    1
31    29    27    1
32    30    29    1
33    31    29    1
34    32    27    1
35    32    29    1
36    33    32    1
37    34    32    1
@<TRIPOS>SUBSTRUCTURE
1   LIG    1    
 
########## Name        : 1VRT.lig
########## Description : AM1BCC_CHARGES =  -0.0002 ORIGINAL_CHARGES =  -0.0000

@<TRIPOS>MOLECULE
1VRT.lig
34    37    1     0     0    
SMALL
USER_CHARGES
@<TRIPOS>ATOM
1     N1       4.0540  -36.9310   22.2210 N.ar    1  LIG  -0.6650  -0.6200 
2     C1       4.9660  -36.2380   22.9390 C.ar    1  LIG   0.3947   0.1600 
3     H1       6.0082  -36.2811   22.6707 H       1  LIG   0.0281   0.1500 
4     C2       4.6240  -35.4500   24.0360 C.ar    1  LIG  -0.2334  -0.1500 
5     H2       5.3884  -34.9151   24.5740 H       1  LIG   0.1480   0.1500 
6     C3       3.3050  -35.3690   24.4150 C.ar    1  LIG  -0.0698  -0.1435 
7     C4       2.3460  -36.0770   23.6860 C.ar    1  LIG  -0.0398   0.1170 
8     N2       0.9890  -36.0280   24.1030 N.am    1  LIG  -0.4596  -0.5470 
9     H3       0.7643  -35.9928   25.0860 H       1  LIG   0.3311   0.3700 
10    C5      -0.1450  -36.0180   23.4080 C.2     1  LIG   0.7361   0.5438 
11    C6      -0.1190  -36.0770   21.8860 C.ar    1  LIG  -0.2550   0.0862 
12    C7      -1.1230  -35.3990   21.1890 C.ar    1  LIG  -0.0321  -0.1500 
13    H4      -1.7552  -34.6955   21.7041 H       1  LIG   0.1623   0.1500 
14    C8      -1.2960  -35.6300   19.8690 C.ar    1  LIG  -0.2723  -0.1500 
15    H5      -2.0662  -35.1073   19.3273 H       1  LIG   0.1522   0.1500 
16    C9      -0.4670  -36.5450   19.2400 C.ar    1  LIG   0.4373   0.1600 
17    H6      -0.5947  -36.7554   18.1915 H       1  LIG   0.0280   0.1500 
18    N3       0.5220  -37.2120   19.8740 N.ar    1  LIG  -0.6893  -0.6200 
19    C10      0.7040  -36.9790   21.1800 C.ar    1  LIG   0.6480   0.4100 
20    N4       1.7670  -37.6730   21.8260 N.pl3   1  LIG  -0.6924  -0.3690 
21    C11      2.7540  -36.8570   22.5840 C.ar    1  LIG   0.5805   0.4100 
22    C12      2.9040  -34.5090   25.6010 C.3     1  LIG  -0.0620   0.1435 
23    H7       2.2235  -33.7630   25.2820 H       1  LIG   0.0570   0.0000 
24    H8       2.4436  -35.1154   26.3371 H       1  LIG   0.0495   0.0000 
25    H9       3.7654  -34.0491   26.0108 H       1  LIG   0.0519   0.0000 
26    O1      -1.2400  -35.9060   23.9770 O.2     1  LIG  -0.6361  -0.5700 
27    C13      2.3440  -38.7570   21.0360 C.3     1  LIG   0.1354   0.0690 
28    H10      3.1238  -38.3754   20.4296 H       1  LIG   0.0981   0.1000 
29    C14      2.9380  -39.8900   21.8010 C.3     1  LIG  -0.1181  -0.2000 
30    H11      3.8890  -40.1268   21.3997 H       1  LIG   0.0732   0.1000 
31    H12      3.0430  -39.6129   22.8177 H       1  LIG   0.0789   0.1000 
32    C15      1.6390  -40.0610   21.0880 C.3     1  LIG  -0.1196  -0.2000 
33    H13      0.6832  -39.9283   21.5242 H       1  LIG   0.0807   0.1000 
34    H14      1.5292  -40.4423   20.1061 H       1  LIG   0.0733   0.1000 
@<TRIPOS>BOND
1     2     1     ar
2     3     2     1
3     4     2     ar
4     5     4     1
5     6     4     ar
6     7     6     ar
7     8     7     1
8     9     8     1
9     10    8     1
10    11    10    1
11    12    11    ar
12    13    12    1
13    14    12    ar
14    15    14    1
15    16    14    ar
16    17    16    1
17    18    16    ar
18    19    11    ar
19    19    18    ar
20    20    19    1
21    21    1     ar
22    21    7     ar
23    21    20    1
24    22    6     1
25    23    22    1
26    24    22    1
27    25    22    1
28    26    10    2
29    27    20    1
30    28    27    1
31    29    27    1
32    30    29    1
33    31    29    1
34    32    27    1
35    32    29    1
36    33    32    1
37    34    32    1
@<TRIPOS>SUBSTRUCTURE
1   LIG    1    
 
########## Name        : 1VRT.lig
########## Description : AM1BCC_CHARGES =  -0.0002 ORIGINAL_CHARGES =  -0.0000

@<TRIPOS>MOLECULE
1VRT.lig
34    37    1     0     0    
SMALL
USER_CHARGES
@<TRIPOS>ATOM
1     N1       4.0540  -36.9310   22.2210 N.ar    1  LIG  -0.6650  -0.6200 
2     C1       4.9660  -36.2380   22.9390 C.ar    1  LIG   0.3947   0.1600 
3     H1       6.0082  -36.2811   22.6707 H       1  LIG   0.0281   0.1500 
4     C2       4.6240  -35.4500   24.0360 C.ar    1  LIG  -0.2334  -0.1500 
5     H2       5.3884  -34.9151   24.5740 H       1  LIG   0.1480   0.1500 
6     C3       3.3050  -35.3690   24.4150 C.ar    1  LIG  -0.0698  -0.1435 
7     C4       2.3460  -36.0770   23.6860 C.ar    1  LIG  -0.0398   0.1170 
8     N2       0.9890  -36.0280   24.1030 N.am    1  LIG  -0.4596  -0.5470 
9     H3       0.7643  -35.9928   25.0860 H       1  LIG   0.3311   0.3700 
10    C5      -0.1450  -36.0180   23.4080 C.2     1  LIG   0.7361   0.5438 
11    C6      -0.1190  -36.0770   21.8860 C.ar    1  LIG  -0.2550   0.0862 
12    C7      -1.1230  -35.3990   21.1890 C.ar    1  LIG  -0.0321  -0.1500 
13    H4      -1.7552  -34.6955   21.7041 H       1  LIG   0.1623   0.1500 
14    C8      -1.2960  -35.6300   19.8690 C.ar    1  LIG  -0.2723  -0.1500 
15    H5      -2.0662  -35.1073   19.3273 H       1  LIG   0.1522   0.1500 
16    C9      -0.4670  -36.5450   19.2400 C.ar    1  LIG   0.4373   0.1600 
17    H6      -0.5947  -36.7554   18.1915 H       1  LIG   0.0280   0.1500 
18    N3       0.5220  -37.2120   19.8740 N.ar    1  LIG  -0.6893  -0.6200 
19    C10      0.7040  -36.9790   21.1800 C.ar    1  LIG   0.6480   0.4100 
20    N4       1.7670  -37.6730   21.8260 N.pl3   1  LIG  -0.6924  -0.3690 
21    C11      2.7540  -36.8570   22.5840 C.ar    1  LIG   0.5805   0.4100 
22    C12      2.9040  -34.5090   25.6010 C.3     1  LIG  -0.0620   0.1435 
23    H7       2.2235  -33.7630   25.2820 H       1  LIG   0.0570   0.0000 
24    H8       2.4436  -35.1154   26.3371 H       1  LIG   0.0495   0.0000 
25    H9       3.7654  -34.0491   26.0108 H       1  LIG   0.0519   0.0000 
26    O1      -1.2400  -35.9060   23.9770 O.2     1  LIG  -0.6361  -0.5700 
27    C13      2.3440  -38.7570   21.0360 C.3     1  LIG   0.1354   0.0690 
28    H10      3.1238  -38.3754   20.4296 H       1  LIG   0.0981   0.1000 
29    C14      2.9380  -39.8900   21.8010 C.3     1  LIG  -0.1181  -0.2000 
30    H11      3.8890  -40.1268   21.3997 H       1  LIG   0.0732   0.1000 
31    H12      3.0430  -39.6129   22.8177 H       1  LIG   0.0789   0.1000 
32    C15      1.6390  -40.0610   21.0880 C.3     1  LIG  -0.1196  -0.2000 
33    H13      0.6832  -39.9283   21.5242 H       1  LIG   0.0807   0.1000 
34    H14      1.5292  -40.4423   20.1061 H       1  LIG   0.0733   0.1000 
@<TRIPOS>BOND
1     2     1     ar
2     3     2     1
3     4     2     ar
4     5     4     1
5     6     4     ar
6     7     6     ar
7     8     7     1
8     9     8     1
9     10    8     1
10    11    10    1
11    12    11    ar
12    13    12    1
13    14    12    ar
14    15    14    1
15    16    14    ar
16    17    16    1
17    18    16    ar
18    19    11    ar
19    19    18    ar
20    20    19    1
21    21    1     ar
22    21    7     ar
23    21    20    1
24    22    6     1
25    23    22    1
26    24    22    1
27    25    22    1
28    26    10    2
29    27    20    1
30    28    27    1
31    29    27    1
32    30    29    1
33    31    29    1
34    32    27    1
35    32    29    1
36    33    32    1
37    34    32    1
@<TRIPOS>SUBSTRUCTURE
1   LIG    1    
 
########## Name        : 1VRT.lig
########## Description : AM1BCC_CHARGES =  -0.0002 ORIGINAL_CHARGES =  -0.0000

@<TRIPOS>MOLECULE
1VRT.lig
34    37    1     0     0    
SMALL
USER_CHARGES
@<TRIPOS>ATOM
1     N1       4.0540  -36.9310   22.2210 N.ar    1  LIG  -0.6650  -0.6200 
2     C1       4.9660  -36.2380   22.9390 C.ar    1  LIG   0.3947   0.1600 
3     H1       6.0082  -36.2811   22.6707 H       1  LIG   0.0281   0.1500 
4     C2       4.6240  -35.4500   24.0360 C.ar    1  LIG  -0.2334  -0.1500 
5     H2       5.3884  -34.9151   24.5740 H       1  LIG   0.1480   0.1500 
6     C3       3.3050  -35.3690   24.4150 C.ar    1  LIG  -0.0698  -0.1435 
7     C4       2.3460  -36.0770   23.6860 C.ar    1  LIG  -0.0398   0.1170 
8     N2       0.9890  -36.0280   24.1030 N.am    1  LIG  -0.4596  -0.5470 
9     H3       0.7643  -35.9928   25.0860 H       1  LIG   0.3311   0.3700 
10    C5      -0.1450  -36.0180   23.4080 C.2     1  LIG   0.7361   0.5438 
11    C6      -0.1190  -36.0770   21.8860 C.ar    1  LIG  -0.2550   0.0862 
12    C7      -1.1230  -35.3990   21.1890 C.ar    1  LIG  -0.0321  -0.1500 
13    H4      -1.7552  -34.6955   21.7041 H       1  LIG   0.1623   0.1500 
14    C8      -1.2960  -35.6300   19.8690 C.ar    1  LIG  -0.2723  -0.1500 
15    H5      -2.0662  -35.1073   19.3273 H       1  LIG   0.1522   0.1500 
16    C9      -0.4670  -36.5450   19.2400 C.ar    1  LIG   0.4373   0.1600 
17    H6      -0.5947  -36.7554   18.1915 H       1  LIG   0.0280   0.1500 
18    N3       0.5220  -37.2120   19.8740 N.ar    1  LIG  -0.6893  -0.6200 
19    C10      0.7040  -36.9790   21.1800 C.ar    1  LIG   0.6480   0.4100 
20    N4       1.7670  -37.6730   21.8260 N.pl3   1  LIG  -0.6924  -0.3690 
21    C11      2.7540  -36.8570   22.5840 C.ar    1  LIG   0.5805   0.4100 
22    C12      2.9040  -34.5090   25.6010 C.3     1  LIG  -0.0620   0.1435 
23    H7       2.2235  -33.7630   25.2820 H       1  LIG   0.0570   0.0000 
24    H8       2.4436  -35.1154   26.3371 H       1  LIG   0.0495   0.0000 
25    H9       3.7654  -34.0491   26.0108 H       1  LIG   0.0519   0.0000 
26    O1      -1.2400  -35.9060   23.9770 O.2     1  LIG  -0.6361  -0.5700 
27    C13      2.3440  -38.7570   21.0360 C.3     1  LIG   0.1354   0.0690 
28    H10      3.1238  -38.3754   20.4296 H       1  LIG   0.0981   0.1000 
29    C14      2.9380  -39.8900   21.8010 C.3     1  LIG  -0.1181  -0.2000 
30    H11      3.8890  -40.1268   21.3997 H       1  LIG   0.0732   0.1000 
31    H12      3.0430  -39.6129   22.8177 H       1  LIG   0.0789   0.1000 
32    C15      1.6390  -40.0610   21.0880 C.3     1  LIG  -0.1196  -0.2000 
33    H13      0.6832  -39.9283   21.5242 H       1  LIG   0.0807   0.1000 
34    H14      1.5292  -40.4423   20.1061 H       1  LIG   0.0733   0.1000 
@<TRIPOS>BOND
1     2     1     ar
2     3     2     1
3     4     2     ar
4     5     4     1
5     6     4     ar
6     7     6     ar
7     8     7     1
8     9     8     1
9     10    8     1
10    11    10    1
11    12    11    ar
12    13    12    1
13    14    12    ar
14    15    14    1
15    16    14    ar
16    17    16    1
17    18    16    ar
18    19    11    ar
19    19    18    ar
20    20    19    1
21    21    1     ar
22    21    7     ar
23    21    20    1
24    22    6     1
25    23    22    1
26    24    22    1
27    25    22    1
28    26    10    2
29    27    20    1
30    28    27    1
31    29    27    1
32    30    29    1
33    31    29    1
34    32    27    1
35    32    29    1
36    33    32    1
37    34    32    1
@<TRIPOS>SUBSTRUCTURE
1   LIG    1    
 
########## Name        : 1VRT.lig
########## Description : AM1BCC_CHARGES =  -0.0002 ORIGINAL_CHARGES =  -0.0000

@<TRIPOS>MOLECULE
1VRT.lig
34    37    1     0     0    
SMALL
USER_CHARGES
@<TRIPOS>ATOM
1     N1       4.0540  -36.9310   22.2210 N.ar    1  LIG  -0.6650  -0.6200 
2     C1       4.9660  -36.2380   22.9390 C.ar    1  LIG   0.3947   0.1600 
3     H1       6.0082  -36.2811   22.6707 H       1  LIG   0.0281   0.1500 
4     C2       4.6240  -35.4500   24.0360 C.ar    1  LIG  -0.2334  -0.1500 
5     H2       5.3884  -34.9151   24.5740 H       1  LIG   0.1480   0.1500 
6     C3       3.3050  -35.3690   24.4150 C.ar    1  LIG  -0.0698  -0.1435 
7     C4       2.3460  -36.0770   23.6860 C.ar    1  LIG  -0.0398   0.1170 
8     N2       0.9890  -36.0280   24.1030 N.am    1  LIG  -0.4596  -0.5470 
9     H3       0.7643  -35.9928   25.0860 H       1  LIG   0.3311   0.3700 
10    C5      -0.1450  -36.0180   23.4080 C.2     1  LIG   0.7361   0.5438 
11    C6      -0.1190  -36.0770   21.8860 C.ar    1  LIG  -0.2550   0.0862 
12    C7      -1.1230  -35.3990   21.1890 C.ar    1  LIG  -0.0321  -0.1500 
13    H4      -1.7552  -34.6955   21.7041 H       1  LIG   0.1623   0.1500 
14    C8      -1.2960  -35.6300   19.8690 C.ar    1  LIG  -0.2723  -0.1500 
15    H5      -2.0662  -35.1073   19.3273 H       1  LIG   0.1522   0.1500 
16    C9      -0.4670  -36.5450   19.2400 C.ar    1  LIG   0.4373   0.1600 
17    H6      -0.5947  -36.7554   18.1915 H       1  LIG   0.0280   0.1500 
18    N3       0.5220  -37.2120   19.8740 N.ar    1  LIG  -0.6893  -0.6200 
19    C10      0.7040  -36.9790   21.1800 C.ar    1  LIG   0.6480   0.4100 
20    N4       1.7670  -37.6730   21.8260 N.pl3   1  LIG  -0.6924  -0.3690 
21    C11      2.7540  -36.8570   22.5840 C.ar    1  LIG   0.5805   0.4100 
22    C12      2.9040  -34.5090   25.6010 C.3     1  LIG  -0.0620   0.1435 
23    H7       2.2235  -33.7630   25.2820 H       1  LIG   0.0570   0.0000 
24    H8       2.4436  -35.1154   26.3371 H       1  LIG   0.0495   0.0000 
25    H9       3.7654  -34.0491   26.0108 H       1  LIG   0.0519   0.0000 
26    O1      -1.2400  -35.9060   23.9770 O.2     1  LIG  -0.6361  -0.5700 
27    C13      2.3440  -38.7570   21.0360 C.3     1  LIG   0.1354   0.0690 
28    H10      3.1238  -38.3754   20.4296 H       1  LIG   0.0981   0.1000 
29    C14      2.9380  -39.8900   21.8010 C.3     1  LIG  -0.1181  -0.2000 
30    H11      3.8890  -40.1268   21.3997 H       1  LIG   0.0732   0.1000 
31    H12      3.0430  -39.6129   22.8177 H       1  LIG   0.0789   0.1000 
32    C15      1.6390  -40.0610   21.0880 C.3     1  LIG  -0.1196  -0.2000 
33    H13      0.6832  -39.9283   21.5242 H       1  LIG   0.0807   0.1000 
34    H14      1.5292  -40.4423   20.1061 H       1  LIG   0.0733   0.1000 
@<TRIPOS>BOND
1     2     1     ar
2     3     2     1
3     4     2     ar
4     5     4     1
5     6     4     ar
6     7     6     ar
7     8     7     1
8     9     8     1
9     10    8     1
10    11    10    1
11    12    11    ar
12    13    12    1
13    14    12    ar
14    15    14    1
15    16    14    ar
16    17    16    1
17    18    16    ar
18    19    11    ar
19    19    18    ar
20    20    19    1
21    21    1     ar
22    21    7     ar
23    21    20    1
24    22    6     1
25    23    22    1
26    24    22    1
27    25    22    1
28    26    10    2
29    27    20    1
30    28    27    1
31    29    27    1
32    30    29    1
33    31    29    1
34    32    27    1
35    32    29    1
36    33    32    1
37    34    32    1
@<TRIPOS>SUBSTRUCTURE
1   LIG    1    
 
########## Name        : 1VRT.lig
########## Description : AM1BCC_CHARGES =  -0.0002 ORIGINAL_CHARGES =  -0.0000

@<TRIPOS>MOLECULE
1VRT.lig
34    37    1     0     0    
SMALL
USER_CHARGES
@<TRIPOS>ATOM
1     N1       4.0540  -36.9310   22.2210 N.ar    1  LIG  -0.6650  -0.6200 
2     C1       4.9660  -36.2380   22.9390 C.ar    1  LIG   0.3947   0.1600 
3     H1       6.0082  -36.2811   22.6707 H       1  LIG   0.0281   0.1500 
4     C2       4.6240  -35.4500   24.0360 C.ar    1  LIG  -0.2334  -0.1500 
5     H2       5.3884  -34.9151   24.5740 H       1  LIG   0.1480   0.1500 
6     C3       3.3050  -35.3690   24.4150 C.ar    1  LIG  -0.0698  -0.1435 
7     C4       2.3460  -36.0770   23.6860 C.ar    1  LIG  -0.0398   0.1170 
8     N2       0.9890  -36.0280   24.1030 N.am    1  LIG  -0.4596  -0.5470 
9     H3       0.7643  -35.9928   25.0860 H       1  LIG   0.3311   0.3700 
10    C5      -0.1450  -36.0180   23.4080 C.2     1  LIG   0.7361   0.5438 
11    C6      -0.1190  -36.0770   21.8860 C.ar    1  LIG  -0.2550   0.0862 
12    C7      -1.1230  -35.3990   21.1890 C.ar    1  LIG  -0.0321  -0.1500 
13    H4      -1.7552  -34.6955   21.7041 H       1  LIG   0.1623   0.1500 
14    C8      -1.2960  -35.6300   19.8690 C.ar    1  LIG  -0.2723  -0.1500 
15    H5      -2.0662  -35.1073   19.3273 H       1  LIG   0.1522   0.1500 
16    C9      -0.4670  -36.5450   19.2400 C.ar    1  LIG   0.4373   0.1600 
17    H6      -0.5947  -36.7554   18.1915 H       1  LIG   0.0280   0.1500 
18    N3       0.5220  -37.2120   19.8740 N.ar    1  LIG  -0.6893  -0.6200 
19    C10      0.7040  -36.9790   21.1800 C.ar    1  LIG   0.6480   0.4100 
20    N4       1.7670  -37.6730   21.8260 N.pl3   1  LIG  -0.6924  -0.3690 
21    C11      2.7540  -36.8570   22.5840 C.ar    1  LIG   0.5805   0.4100 
22    C12      2.9040  -34.5090   25.6010 C.3     1  LIG  -0.0620   0.1435 
23    H7       2.2235  -33.7630   25.2820 H       1  LIG   0.0570   0.0000 
24    H8       2.4436  -35.1154   26.3371 H       1  LIG   0.0495   0.0000 
25    H9       3.7654  -34.0491   26.0108 H       1  LIG   0.0519   0.0000 
26    O1      -1.2400  -35.9060   23.9770 O.2     1  LIG  -0.6361  -0.5700 
27    C13      2.3440  -38.7570   21.0360 C.3     1  LIG   0.1354   0.0690 
28    H10      3.1238  -38.3754   20.4296 H       1  LIG   0.0981   0.1000 
29    C14      2.9380  -39.8900   21.8010 C.3     1  LIG  -0.1181  -0.2000 
30    H11      3.8890  -40.1268   21.3997 H       1  LIG   0.0732   0.1000 
31    H12      3.0430  -39.6129   22.8177 H       1  LIG   0.0789   0.1000 
32    C15      1.6390  -40.0610   21.0880 C.3     1  LIG  -0.1196  -0.2000 
33    H13      0.6832  -39.9283   21.5242 H       1  LIG   0.0807   0.1000 
34    H14      1.5292  -40.4423   20.1061 H       1  LIG   0.0733   0.1000 
@<TRIPOS>BOND
1     2     1     ar
2     3     2     1
3     4     2     ar
4     5     4     1
5     6     4     ar
6     7     6     ar
7     8     7     1
8     9     8     1
9     10    8     1
10    11    10    1
11    12    11    ar
12    13    12    1
13    14    12    ar
14    15    14    1
15    16    14    ar
16    17    16    1
17    18    16    ar
18    19    11    ar
19    19    18    ar
20    20    19    1
21    21    1     ar
22    21    7     ar
23    21    20    1
24    22    6     1
25    23    22    1
26    24    22    1
27    25    22    1
28    26    10    2
29    27    20    1
30    28    27    1
31    29    27    1
32    30    29    1
33    31    29    1
34    32    27    1
35    32    29    1
36    33    32    1
37    34    32    1
@<TRIPOS>SUBSTRUCTURE
1   LIG    1    
 
########## Name        : 1VRT.lig
########## Description : AM1BCC_CHARGES =  -0.0002 ORIGINAL_CHARGES =  -0.0000

@<TRIPOS>MOLECULE
1VRT.lig
34    37    1     0     0    
SMALL
USER_CHARGES
@<TRIPOS>ATOM
1     N1       4.0540  -36.9310   22.2210 N.ar    1  LIG  -0.6650  -0.6200 
2     C1       4.9660  -36.2380   22.9390 C.ar    1  LIG   0.3947   0.1600 
3     H1       6.0082  -36.2811   22.6707 H       1  LIG   0.0281   0.1500 
4     C2       4.6240  -35.4500   24.0360 C.ar    1  LIG  -0.2334  -0.1500 
5     H2       5.3884  -34.9151   24.5740 H       1  LIG   0.1480   0.1500 
6     C3       3.3050  -35.3690   24.4150 C.ar    1  LIG  -0.0698  -0.1435 
7     C4       2.3460  -36.0770   23.6860 C.ar    1  LIG  -0.0398   0.1170 
8     N2       0.9890  -36.0280   24.1030 N.am    1  LIG  -0.4596  -0.5470 
9     H3       0.7643  -35.9928   25.0860 H       1  LIG   0.3311   0.3700 
10    C5      -0.1450  -36.0180   23.4080 C.2     1  LIG   0.7361   0.5438 
11    C6      -0.1190  -36.0770   21.8860 C.ar    1  LIG  -0.2550   0.0862 
12    C7      -1.1230  -35.3990   21.1890 C.ar    1  LIG  -0.0321  -0.1500 
13    H4      -1.7552  -34.6955   21.7041 H       1  LIG   0.1623   0.1500 
14    C8      -1.2960  -35.6300   19.8690 C.ar    1  LIG  -0.2723  -0.1500 
15    H5      -2.0662  -35.1073   19.3273 H       1  LIG   0.1522   0.1500 
16    C9      -0.4670  -36.5450   19.2400 C.ar    1  LIG   0.4373   0.1600 
17    H6      -0.5947  -36.7554   18.1915 H       1  LIG   0.0280   0.1500 
18    N3       0.5220  -37.2120   19.8740 N.ar    1  LIG  -0.6893  -0.6200 
19    C10      0.7040  -36.9790   21.1800 C.ar    1  LIG   0.6480   0.4100 
20    N4       1.7670  -37.6730   21.8260 N.pl3   1  LIG  -0.6924  -0.3690 
21    C11      2.7540  -36.8570   22.5840 C.ar    1  LIG   0.5805   0.4100 
22    C12      2.9040  -34.5090   25.6010 C.3     1  LIG  -0.0620   0.1435 
23    H7       2.2235  -33.7630   25.2820 H       1  LIG   0.0570   0.0000 
24    H8       2.4436  -35.1154   26.3371 H       1  LIG   0.0495   0.0000 
25    H9       3.7654  -34.0491   26.0108 H       1  LIG   0.0519   0.0000 
26    O1      -1.2400  -35.9060   23.9770 O.2     1  LIG  -0.6361  -0.5700 
27    C13      2.3440  -38.7570   21.0360 C.3     1  LIG   0.1354   0.0690 
28    H10      3.1238  -38.3754   20.4296 H       1  LIG   0.0981   0.1000 
29    C14      2.9380  -39.8900   21.8010 C.3     1  LIG  -0.1181  -0.2000 
30    H11      3.8890  -40.1268   21.3997 H       1  LIG   0.0732   0.1000 
31    H12      3.0430  -39.6129   22.8177 H       1  LIG   0.0789   0.1000 
32    C15      1.6390  -40.0610   21.0880 C.3     1  LIG  -0.1196  -0.2000 
33    H13      0.6832  -39.9283   21.5242 H       1  LIG   0.0807   0.1000 
34    H14      1.5292  -40.4423   20.1061 H       1  LIG   0.0733   0.1000 
@<TRIPOS>BOND
1     2     1     ar
2     3     2     1
3     4     2     ar
4     5     4     1
5     6     4     ar
6     7     6     ar
7     8     7     1
8     9     8     1
9     10    8     1
10    11    10    1
11    12    11    ar
12    13    12    1
13    14    12    ar
14    15    14    1
15    16    14    ar
16    17    16    1
17    18    16    ar
18    19    11    ar
19    19    18    ar
20    20    19    1
21    21    1     ar
22    21    7     ar
23    21    20    1
24    22    6     1
25    23    22    1
26    24    22    1
27    25    22    1
28    26    10    2
29    27    20    1
30    28    27    1
31    29    27    1
32    30    29    1
33    31    29    1
34    32    27    1
35    32    29    1
36    33    32    1
37    34    32    1
@<TRIPOS>SUBSTRUCTURE
1   LIG    1    
 
########## Name        : 1VRT.lig
########## Description : AM1BCC_CHARGES =  -0.0002 ORIGINAL_CHARGES =  -0.0000

@<TRIPOS>MOLECULE
1VRT.lig
34    37    1     0     0    
SMALL
USER_CHARGES
@<TRIPOS>ATOM
1     N1       4.0540  -36.9310   22.2210 N.ar    1  LIG  -0.6650  -0.6200 
2     C1       4.9660  -36.2380   22.9390 C.ar    1  LIG   0.3947   0.1600 
3     H1       6.0082  -36.2811   22.6707 H       1  LIG   0.0281   0.1500 
4     C2       4.6240  -35.4500   24.0360 C.ar    1  LIG  -0.2334  -0.1500 
5     H2       5.3884  -34.9151   24.5740 H       1  LIG   0.1480   0.1500 
6     C3       3.3050  -35.3690   24.4150 C.ar    1  LIG  -0.0698  -0.1435 
7     C4       2.3460  -36.0770   23.6860 C.ar    1  LIG  -0.0398   0.1170 
8     N2       0.9890  -36.0280   24.1030 N.am    1  LIG  -0.4596  -0.5470 
9     H3       0.7643  -35.9928   25.0860 H       1  LIG   0.3311   0.3700 
10    C5      -0.1450  -36.0180   23.4080 C.2     1  LIG   0.7361   0.5438 
11    C6      -0.1190  -36.0770   21.8860 C.ar    1  LIG  -0.2550   0.0862 
12    C7      -1.1230  -35.3990   21.1890 C.ar    1  LIG  -0.0321  -0.1500 
13    H4      -1.7552  -34.6955   21.7041 H       1  LIG   0.1623   0.1500 
14    C8      -1.2960  -35.6300   19.8690 C.ar    1  LIG  -0.2723  -0.1500 
15    H5      -2.0662  -35.1073   19.3273 H       1  LIG   0.1522   0.1500 
16    C9      -0.4670  -36.5450   19.2400 C.ar    1  LIG   0.4373   0.1600 
17    H6      -0.5947  -36.7554   18.1915 H       1  LIG   0.0280   0.1500 
18    N3       0.5220  -37.2120   19.8740 N.ar    1  LIG  -0.6893  -0.6200 
19    C10      0.7040  -36.9790   21.1800 C.ar    1  LIG   0.6480   0.4100 
20    N4       1.7670  -37.6730   21.8260 N.pl3   1  LIG  -0.6924  -0.3690 
21    C11      2.7540  -36.8570   22.5840 C.ar    1  LIG   0.5805   0.4100 
22    C12      2.9040  -34.5090   25.6010 C.3     1  LIG  -0.0620   0.1435 
23    H7       2.2235  -33.7630   25.2820 H       1  LIG   0.0570   0.0000 
24    H8       2.4436  -35.1154   26.3371 H       1  LIG   0.0495   0.0000 
25    H9       3.7654  -34.0491   26.0108 H       1  LIG   0.0519   0.0000 
26    O1      -1.2400  -35.9060   23.9770 O.2     1  LIG  -0.6361  -0.5700 
27    C13      2.3440  -38.7570   21.0360 C.3     1  LIG   0.1354   0.0690 
28    H10      3.1238  -38.3754   20.4296 H       1  LIG   0.0981   0.1000 
29    C14      2.9380  -39.8900   21.8010 C.3     1  LIG  -0.1181  -0.2000 
30    H11      3.8890  -40.1268   21.3997 H       1  LIG   0.0732   0.1000 
31    H12      3.0430  -39.6129   22.8177 H       1  LIG   0.0789   0.1000 
32    C15      1.6390  -40.0610   21.0880 C.3     1  LIG  -0.1196  -0.2000 
33    H13      0.6832  -39.9283   21.5242 H       1  LIG   0.0807   0.1000 
34    H14      1.5292  -40.4423   20.1061 H       1  LIG   0.0733   0.1000 
@<TRIPOS>BOND
1     2     1     ar
2     3     2     1
3     4     2     ar
4     5     4     1
5     6     4     ar
6     7     6     ar
7     8     7     1
8     9     8     1
9     10    8     1
10    11    10    1
11    12    11    ar
12    13    12    1
13    14    12    ar
14    15    14    1
15    16    14    ar
16    17    16    1
17    18    16    ar
18    19    11    ar
19    19    18    ar
20    20    19    1
21    21    1     ar
22    21    7     ar
23    21    20    1
24    22    6     1
25    23    22    1
26    24    22    1
27    25    22    1
28    26    10    2
29    27    20    1
30    28    27    1
31    29    27    1
32    30    29    1
33    31    29    1
34    32    27    1
35    32    29    1
36    33    32    1
37    34    32    1
@<TRIPOS>SUBSTRUCTURE
1   LIG    1    
 
########## Name        : 1VRT.lig
########## Description : AM1BCC_CHARGES =  -0.0002 ORIGINAL_CHARGES =  -0.0000

@<TRIPOS>MOLECULE
1VRT.lig
34    37    1     0     0    
SMALL
USER_CHARGES
@<TRIPOS>ATOM
1     N1       4.0540  -36.9310   22.2210 N.ar    1  LIG  -0.6650  -0.6200 
2     C1       4.9660  -36.2380   22.9390 C.ar    1  LIG   0.3947   0.1600 
3     H1       6.0082  -36.2811   22.6707 H       1  LIG   0.0281   0.1500 
4     C2       4.6240  -35.4500   24.0360 C.ar    1  LIG  -0.2334  -0.1500 
5     H2       5.3884  -34.9151   24.5740 H       1  LIG   0.1480   0.1500 
6     C3       3.3050  -35.3690   24.4150 C.ar    1  LIG  -0.0698  -0.1435 
7     C4       2.3460  -36.0770   23.6860 C.ar    1  LIG  -0.0398   0.1170 
8     N2       0.9890  -36.0280   24.1030 N.am    1  LIG  -0.4596  -0.5470 
9     H3       0.7643  -35.9928   25.0860 H       1  LIG   0.3311   0.3700 
10    C5      -0.1450  -36.0180   23.4080 C.2     1  LIG   0.7361   0.5438 
11    C6      -0.1190  -36.0770   21.8860 C.ar    1  LIG  -0.2550   0.0862 
12    C7      -1.1230  -35.3990   21.1890 C.ar    1  LIG  -0.0321  -0.1500 
13    H4      -1.7552  -34.6955   21.7041 H       1  LIG   0.1623   0.1500 
14    C8      -1.2960  -35.6300   19.8690 C.ar    1  LIG  -0.2723  -0.1500 
15    H5      -2.0662  -35.1073   19.3273 H       1  LIG   0.1522   0.1500 
16    C9      -0.4670  -36.5450   19.2400 C.ar    1  LIG   0.4373   0.1600 
17    H6      -0.5947  -36.7554   18.1915 H       1  LIG   0.0280   0.1500 
18    N3       0.5220  -37.2120   19.8740 N.ar    1  LIG  -0.6893  -0.6200 
19    C10      0.7040  -36.9790   21.1800 C.ar    1  LIG   0.6480   0.4100 
20    N4       1.7670  -37.6730   21.8260 N.pl3   1  LIG  -0.6924  -0.3690 
21    C11      2.7540  -36.8570   22.5840 C.ar    1  LIG   0.5805   0.4100 
22    C12      2.9040  -34.5090   25.6010 C.3     1  LIG  -0.0620   0.1435 
23    H7       2.2235  -33.7630   25.2820 H       1  LIG   0.0570   0.0000 
24    H8       2.4436  -35.1154   26.3371 H       1  LIG   0.0495   0.0000 
25    H9       3.7654  -34.0491   26.0108 H       1  LIG   0.0519   0.0000 
26    O1      -1.2400  -35.9060   23.9770 O.2     1  LIG  -0.6361  -0.5700 
27    C13      2.3440  -38.7570   21.0360 C.3     1  LIG   0.1354   0.0690 
28    H10      3.1238  -38.3754   20.4296 H       1  LIG   0.0981   0.1000 
29    C14      2.9380  -39.8900   21.8010 C.3     1  LIG  -0.1181  -0.2000 
30    H11      3.8890  -40.1268   21.3997 H       1  LIG   0.0732   0.1000 
31    H12      3.0430  -39.6129   22.8177 H       1  LIG   0.0789   0.1000 
32    C15      1.6390  -40.0610   21.0880 C.3     1  LIG  -0.1196  -0.2000 
33    H13      0.6832  -39.9283   21.5242 H       1  LIG   0.0807   0.1000 
34    H14      1.5292  -40.4423   20.1061 H       1  LIG   0.0733   0.1000 
@<TRIPOS>BOND
1     2     1     ar
2     3     2     1
3     4     2     ar
4     5     4     1
5     6     4     ar
6     7     6     ar
7     8     7     1
8     9     8     1
9     10    8     1
10    11    10    1
11    12    11    ar
12    13    12    1
13    14    12    ar
14    15    14    1
15    16    14    ar
16    17    16    1
17    18    16    ar
18    19    11    ar
19    19    18    ar
20    20    19    1
21    21    1     ar
22    21    7     ar
23    21    20    1
24    22    6     1
25    23    22    1
26    24    22    1
27    25    22    1
28    26    10    2
29    27    20    1
30    28    27    1
31    29    27    1
32    30    29    1
33    31    29    1
34    32    27    1
35    32    29    1
36    33    32    1
37    34    32    1
@<TRIPOS>SUBSTRUCTURE
1   LIG    1    
 
########## Name        : 1VRT.lig
########## Description : AM1BCC_CHARGES =  -0.0002 ORIGINAL_CHARGES =  -0.0000

@<TRIPOS>MOLECULE
1VRT.lig
34    37    1     0     0    
SMALL
USER_CHARGES
@<TRIPOS>ATOM
1     N1       4.0540  -36.9310   22.2210 N.ar    1  LIG  -0.6650  -0.6200 
2     C1       4.9660  -36.2380   22.9390 C.ar    1  LIG   0.3947   0.1600 
3     H1       6.0082  -36.2811   22.6707 H       1  LIG   0.0281   0.1500 
4     C2       4.6240  -35.4500   24.0360 C.ar    1  LIG  -0.2334  -0.1500 
5     H2       5.3884  -34.9151   24.5740 H       1  LIG   0.1480   0.1500 
6     C3       3.3050  -35.3690   24.4150 C.ar    1  LIG  -0.0698  -0.1435 
7     C4       2.3460  -36.0770   23.6860 C.ar    1  LIG  -0.0398   0.1170 
8     N2       0.9890  -36.0280   24.1030 N.am    1  LIG  -0.4596  -0.5470 
9     H3       0.7643  -35.9928   25.0860 H       1  LIG   0.3311   0.3700 
10    C5      -0.1450  -36.0180   23.4080 C.2     1  LIG   0.7361   0.5438 
11    C6      -0.1190  -36.0770   21.8860 C.ar    1  LIG  -0.2550   0.0862 
12    C7      -1.1230  -35.3990   21.1890 C.ar    1  LIG  -0.0321  -0.1500 
13    H4      -1.7552  -34.6955   21.7041 H       1  LIG   0.1623   0.1500 
14    C8      -1.2960  -35.6300   19.8690 C.ar    1  LIG  -0.2723  -0.1500 
15    H5      -2.0662  -35.1073   19.3273 H       1  LIG   0.1522   0.1500 
16    C9      -0.4670  -36.5450   19.2400 C.ar    1  LIG   0.4373   0.1600 
17    H6      -0.5947  -36.7554   18.1915 H       1  LIG   0.0280   0.1500 
18    N3       0.5220  -37.2120   19.8740 N.ar    1  LIG  -0.6893  -0.6200 
19    C10      0.7040  -36.9790   21.1800 C.ar    1  LIG   0.6480   0.4100 
20    N4       1.7670  -37.6730   21.8260 N.pl3   1  LIG  -0.6924  -0.3690 
21    C11      2.7540  -36.8570   22.5840 C.ar    1  LIG   0.5805   0.4100 
22    C12      2.9040  -34.5090   25.6010 C.3     1  LIG  -0.0620   0.1435 
23    H7       2.2235  -33.7630   25.2820 H       1  LIG   0.0570   0.0000 
24    H8       2.4436  -35.1154   26.3371 H       1  LIG   0.0495   0.0000 
25    H9       3.7654  -34.0491   26.0108 H       1  LIG   0.0519   0.0000 
26    O1      -1.2400  -35.9060   23.9770 O.2     1  LIG  -0.6361  -0.5700 
27    C13      2.3440  -38.7570   21.0360 C.3     1  LIG   0.1354   0.0690 
28    H10      3.1238  -38.3754   20.4296 H       1  LIG   0.0981   0.1000 
29    C14      2.9380  -39.8900   21.8010 C.3     1  LIG  -0.1181  -0.2000 
30    H11      3.8890  -40.1268   21.3997 H       1  LIG   0.0732   0.1000 
31    H12      3.0430  -39.6129   22.8177 H       1  LIG   0.0789   0.1000 
32    C15      1.6390  -40.0610   21.0880 C.3     1  LIG  -0.1196  -0.2000 
33    H13      0.6832  -39.9283   21.5242 H       1  LIG   0.0807   0.1000 
34    H14      1.5292  -40.4423   20.1061 H       1  LIG   0.0733   0.1000 
@<TRIPOS>BOND
1     2     1     ar
2     3     2     1
3     4     2     ar
4     5     4     1
5     6     4     ar
6     7     6     ar
7     8     7     1
8     9     8     1
9     10    8     1
10    11    10    1
11    12    11    ar
12    13    12    1
13    14    12    ar
14    15    14    1
15    16    14    ar
16    17    16    1
17    18    16    ar
18    19    11    ar
19    19    18    ar
20    20    19    1
21    21    1     ar
22    21    7     ar
23    21    20    1
24    22    6     1
25    23    22    1
26    24    22    1
27    25    22    1
28    26    10    2
29    27    20    1
30    28    27    1
31    29    27    1
32    30    29    1
33    31    29    1
34    32    27    1
35    32    29    1
36    33    32    1
37    34    32    1
@<TRIPOS>SUBSTRUCTURE
1   LIG    1    
 
########## Name        : 1VRT.lig
########## Description : AM1BCC_CHARGES =  -0.0002 ORIGINAL_CHARGES =  -0.0000

@<TRIPOS>MOLECULE
1VRT.lig
34    37    1     0     0    
SMALL
USER_CHARGES
@<TRIPOS>ATOM
1     N1       4.0540  -36.9310   22.2210 N.ar    1  LIG  -0.6650  -0.6200 
2     C1       4.9660  -36.2380   22.9390 C.ar    1  LIG   0.3947   0.1600 
3     H1       6.0082  -36.2811   22.6707 H       1  LIG   0.0281   0.1500 
4     C2       4.6240  -35.4500   24.0360 C.ar    1  LIG  -0.2334  -0.1500 
5     H2       5.3884  -34.9151   24.5740 H       1  LIG   0.1480   0.1500 
6     C3       3.3050  -35.3690   24.4150 C.ar    1  LIG  -0.0698  -0.1435 
7     C4       2.3460  -36.0770   23.6860 C.ar    1  LIG  -0.0398   0.1170 
8     N2       0.9890  -36.0280   24.1030 N.am    1  LIG  -0.4596  -0.5470 
9     H3       0.7643  -35.9928   25.0860 H       1  LIG   0.3311   0.3700 
10    C5      -0.1450  -36.0180   23.4080 C.2     1  LIG   0.7361   0.5438 
11    C6      -0.1190  -36.0770   21.8860 C.ar    1  LIG  -0.2550   0.0862 
12    C7      -1.1230  -35.3990   21.1890 C.ar    1  LIG  -0.0321  -0.1500 
13    H4      -1.7552  -34.6955   21.7041 H       1  LIG   0.1623   0.1500 
14    C8      -1.2960  -35.6300   19.8690 C.ar    1  LIG  -0.2723  -0.1500 
15    H5      -2.0662  -35.1073   19.3273 H       1  LIG   0.1522   0.1500 
16    C9      -0.4670  -36.5450   19.2400 C.ar    1  LIG   0.4373   0.1600 
17    H6      -0.5947  -36.7554   18.1915 H       1  LIG   0.0280   0.1500 
18    N3       0.5220  -37.2120   19.8740 N.ar    1  LIG  -0.6893  -0.6200 
19    C10      0.7040  -36.9790   21.1800 C.ar    1  LIG   0.6480   0.4100 
20    N4       1.7670  -37.6730   21.8260 N.pl3   1  LIG  -0.6924  -0.3690 
21    C11      2.7540  -36.8570   22.5840 C.ar    1  LIG   0.5805   0.4100 
22    C12      2.9040  -34.5090   25.6010 C.3     1  LIG  -0.0620   0.1435 
23    H7       2.2235  -33.7630   25.2820 H       1  LIG   0.0570   0.0000 
24    H8       2.4436  -35.1154   26.3371 H       1  LIG   0.0495   0.0000 
25    H9       3.7654  -34.0491   26.0108 H       1  LIG   0.0519   0.0000 
26    O1      -1.2400  -35.9060   23.9770 O.2     1  LIG  -0.6361  -0.5700 
27    C13      2.3440  -38.7570   21.0360 C.3     1  LIG   0.1354   0.0690 
28    H10      3.1238  -38.3754   20.4296 H       1  LIG   0.0981   0.1000 
29    C14      2.9380  -39.8900   21.8010 C.3     1  LIG  -0.1181  -0.2000 
30    H11      3.8890  -40.1268   21.3997 H       1  LIG   0.0732   0.1000 
31    H12      3.0430  -39.6129   22.8177 H       1  LIG   0.0789   0.1000 
32    C15      1.6390  -40.0610   21.0880 C.3     1  LIG  -0.1196  -0.2000 
33    H13      0.6832  -39.9283   21.5242 H       1  LIG   0.0807   0.1000 
34    H14      1.5292  -40.4423   20.1061 H       1  LIG   0.0733   0.1000 
@<TRIPOS>BOND
1     2     1     ar
2     3     2     1
3     4     2     ar
4     5     4     1
5     6     4     ar
6     7     6     ar
7     8     7     1
8     9     8     1
9     10    8     1
10    11    10    1
11    12    11    ar
12    13    12    1
13    14    12    ar
14    15    14    1
15    16    14    ar
16    17    16    1
17    18    16    ar
18    19    11    ar
19    19    18    ar
20    20    19    1
21    21    1     ar
22    21    7     ar
23    21    20    1
24    22    6     1
25    23    22    1
26    24    22    1
27    25    22    1
28    26    10    2
29    27    20    1
30    28    27    1
31    29    27    1
32    30    29    1
33    31    29    1
34    32    27    1
35    32    29    1
36    33    32    1
37    34    32    1
@<TRIPOS>SUBSTRUCTURE
1   LIG    1    
 
########## Name        : 1VRT.lig
########## Description : AM1BCC_CHARGES =  -0.0002 ORIGINAL_CHARGES =  -0.0000

@<TRIPOS>MOLECULE
1VRT.lig
34    37    1     0     0    
SMALL
USER_CHARGES
@<TRIPOS>ATOM
1     N1       4.0540  -36.9310   22.2210 N.ar    1  LIG  -0.6650  -0.6200 
2     C1       4.9660  -36.2380   22.9390 C.ar    1  LIG   0.3947   0.1600 
3     H1       6.0082  -36.2811   22.6707 H       1  LIG   0.0281   0.1500 
4     C2       4.6240  -35.4500   24.0360 C.ar    1  LIG  -0.2334  -0.1500 
5     H2       5.3884  -34.9151   24.5740 H       1  LIG   0.1480   0.1500 
6     C3       3.3050  -35.3690   24.4150 C.ar    1  LIG  -0.0698  -0.1435 
7     C4       2.3460  -36.0770   23.6860 C.ar    1  LIG  -0.0398   0.1170 
8     N2       0.9890  -36.0280   24.1030 N.am    1  LIG  -0.4596  -0.5470 
9     H3       0.7643  -35.9928   25.0860 H       1  LIG   0.3311   0.3700 
10    C5      -0.1450  -36.0180   23.4080 C.2     1  LIG   0.7361   0.5438 
11    C6      -0.1190  -36.0770   21.8860 C.ar    1  LIG  -0.2550   0.0862 
12    C7      -1.1230  -35.3990   21.1890 C.ar    1  LIG  -0.0321  -0.1500 
13    H4      -1.7552  -34.6955   21.7041 H       1  LIG   0.1623   0.1500 
14    C8      -1.2960  -35.6300   19.8690 C.ar    1  LIG  -0.2723  -0.1500 
15    H5      -2.0662  -35.1073   19.3273 H       1  LIG   0.1522   0.1500 
16    C9      -0.4670  -36.5450   19.2400 C.ar    1  LIG   0.4373   0.1600 
17    H6      -0.5947  -36.7554   18.1915 H       1  LIG   0.0280   0.1500 
18    N3       0.5220  -37.2120   19.8740 N.ar    1  LIG  -0.6893  -0.6200 
19    C10      0.7040  -36.9790   21.1800 C.ar    1  LIG   0.6480   0.4100 
20    N4       1.7670  -37.6730   21.8260 N.pl3   1  LIG  -0.6924  -0.3690 
21    C11      2.7540  -36.8570   22.5840 C.ar    1  LIG   0.5805   0.4100 
22    C12      2.9040  -34.5090   25.6010 C.3     1  LIG  -0.0620   0.1435 
23    H7       2.2235  -33.7630   25.2820 H       1  LIG   0.0570   0.0000 
24    H8       2.4436  -35.1154   26.3371 H       1  LIG   0.0495   0.0000 
25    H9       3.7654  -34.0491   26.0108 H       1  LIG   0.0519   0.0000 
26    O1      -1.2400  -35.9060   23.9770 O.2     1  LIG  -0.6361  -0.5700 
27    C13      2.3440  -38.7570   21.0360 C.3     1  LIG   0.1354   0.0690 
28    H10      3.1238  -38.3754   20.4296 H       1  LIG   0.0981   0.1000 
29    C14      2.9380  -39.8900   21.8010 C.3     1  LIG  -0.1181  -0.2000 
30    H11      3.8890  -40.1268   21.3997 H       1  LIG   0.0732   0.1000 
31    H12      3.0430  -39.6129   22.8177 H       1  LIG   0.0789   0.1000 
32    C15      1.6390  -40.0610   21.0880 C.3     1  LIG  -0.1196  -0.2000 
33    H13      0.6832  -39.9283   21.5242 H       1  LIG   0.0807   0.1000 
34    H14      1.5292  -40.4423   20.1061 H       1  LIG   0.0733   0.1000 
@<TRIPOS>BOND
1     2     1     ar
2     3     2     1
3     4     2     ar
4     5     4     1
5     6     4     ar
6     7     6     ar
7     8     7     1
8     9     8     1
9     10    8     1
10    11    10    1
11    12    11    ar
12    13    12    1
13    14    12    ar
14    15    14    1
15    16    14    ar
16    17    16    1
17    18    16    ar
18    19    11    ar
19    19    18    ar
20    20    19    1
21    21    1     ar
22    21    7     ar
23    21    20    1
24    22    6     1
25    23    22    1
26    24    22    1
27    25    22    1
28    26    10    2
29    27    20    1
30    28    27    1
31    29    27    1
32    30    29    1
33    31    29    1
34    32    27    1
35    32    29    1
36    33    32    1
37    34    32    1
@<TRIPOS>SUBSTRUCTURE
1   LIG    1    
 
########## Name        : 1VRT.lig
########## Description : AM1BCC_CHARGES =  -0.0002 ORIGINAL_CHARGES =  -0.0000

@<TRIPOS>MOLECULE
1VRT.lig
34    37    1     0     0    
SMALL
USER_CHARGES
@<TRIPOS>ATOM
1     N1       4.0540  -36.9310   22.2210 N.ar    1  LIG  -0.6650  -0.6200 
2     C1       4.9660  -36.2380   22.9390 C.ar    1  LIG   0.3947   0.1600 
3     H1       6.0082  -36.2811   22.6707 H       1  LIG   0.0281   0.1500 
4     C2       4.6240  -35.4500   24.0360 C.ar    1  LIG  -0.2334  -0.1500 
5     H2       5.3884  -34.9151   24.5740 H       1  LIG   0.1480   0.1500 
6     C3       3.3050  -35.3690   24.4150 C.ar    1  LIG  -0.0698  -0.1435 
7     C4       2.3460  -36.0770   23.6860 C.ar    1  LIG  -0.0398   0.1170 
8     N2       0.9890  -36.0280   24.1030 N.am    1  LIG  -0.4596  -0.5470 
9     H3       0.7643  -35.9928   25.0860 H       1  LIG   0.3311   0.3700 
10    C5      -0.1450  -36.0180   23.4080 C.2     1  LIG   0.7361   0.5438 
11    C6      -0.1190  -36.0770   21.8860 C.ar    1  LIG  -0.2550   0.0862 
12    C7      -1.1230  -35.3990   21.1890 C.ar    1  LIG  -0.0321  -0.1500 
13    H4      -1.7552  -34.6955   21.7041 H       1  LIG   0.1623   0.1500 
14    C8      -1.2960  -35.6300   19.8690 C.ar    1  LIG  -0.2723  -0.1500 
15    H5      -2.0662  -35.1073   19.3273 H       1  LIG   0.1522   0.1500 
16    C9      -0.4670  -36.5450   19.2400 C.ar    1  LIG   0.4373   0.1600 
17    H6      -0.5947  -36.7554   18.1915 H       1  LIG   0.0280   0.1500 
18    N3       0.5220  -37.2120   19.8740 N.ar    1  LIG  -0.6893  -0.6200 
19    C10      0.7040  -36.9790   21.1800 C.ar    1  LIG   0.6480   0.4100 
20    N4       1.7670  -37.6730   21.8260 N.pl3   1  LIG  -0.6924  -0.3690 
21    C11      2.7540  -36.8570   22.5840 C.ar    1  LIG   0.5805   0.4100 
22    C12      2.9040  -34.5090   25.6010 C.3     1  LIG  -0.0620   0.1435 
23    H7       2.2235  -33.7630   25.2820 H       1  LIG   0.0570   0.0000 
24    H8       2.4436  -35.1154   26.3371 H       1  LIG   0.0495   0.0000 
25    H9       3.7654  -34.0491   26.0108 H       1  LIG   0.0519   0.0000 
26    O1      -1.2400  -35.9060   23.9770 O.2     1  LIG  -0.6361  -0.5700 
27    C13      2.3440  -38.7570   21.0360 C.3     1  LIG   0.1354   0.0690 
28    H10      3.1238  -38.3754   20.4296 H       1  LIG   0.0981   0.1000 
29    C14      2.9380  -39.8900   21.8010 C.3     1  LIG  -0.1181  -0.2000 
30    H11      3.8890  -40.1268   21.3997 H       1  LIG   0.0732   0.1000 
31    H12      3.0430  -39.6129   22.8177 H       1  LIG   0.0789   0.1000 
32    C15      1.6390  -40.0610   21.0880 C.3     1  LIG  -0.1196  -0.2000 
33    H13      0.6832  -39.9283   21.5242 H       1  LIG   0.0807   0.1000 
34    H14      1.5292  -40.4423   20.1061 H       1  LIG   0.0733   0.1000 
@<TRIPOS>BOND
1     2     1     ar
2     3     2     1
3     4     2     ar
4     5     4     1
5     6     4     ar
6     7     6     ar
7     8     7     1
8     9     8     1
9     10    8     1
10    11    10    1
11    12    11    ar
12    13    12    1
13    14    12    ar
14    15    14    1
15    16    14    ar
16    17    16    1
17    18    16    ar
18    19    11    ar
19    19    18    ar
20    20    19    1
21    21    1     ar
22    21    7     ar
23    21    20    1
24    22    6     1
25    23    22    1
26    24    22    1
27    25    22    1
28    26    10    2
29    27    20    1
30    28    27    1
31    29    27    1
32    30    29    1
33    31    29    1
34    32    27    1
35    32    29    1
36    33    32    1
37    34    32    1
@<TRIPOS>SUBSTRUCTURE
1   LIG    1    
 
########## Name        : 1VRT.lig
########## Description : AM1BCC_CHARGES =  -0.0002 ORIGINAL_CHARGES =  -0.0000

@<TRIPOS>MOLECULE
1VRT.lig
34    37    1     0     0    
SMALL
USER_CHARGES
@<TRIPOS>ATOM
1     N1       4.0540  -36.9310   22.2210 N.ar    1  LIG  -0.6650  -0.6200 
2     C1       4.9660  -36.2380   22.9390 C.ar    1  LIG   0.3947   0.1600 
3     H1       6.0082  -36.2811   22.6707 H       1  LIG   0.0281   0.1500 
4     C2       4.6240  -35.4500   24.0360 C.ar    1  LIG  -0.2334  -0.1500 
5     H2       5.3884  -34.9151   24.5740 H       1  LIG   0.1480   0.1500 
6     C3       3.3050  -35.3690   24.4150 C.ar    1  LIG  -0.0698  -0.1435 
7     C4       2.3460  -36.0770   23.6860 C.ar    1  LIG  -0.0398   0.1170 
8     N2       0.9890  -36.0280   24.1030 N.am    1  LIG  -0.4596  -0.5470 
9     H3       0.7643  -35.9928   25.0860 H       1  LIG   0.3311   0.3700 
10    C5      -0.1450  -36.0180   23.4080 C.2     1  LIG   0.7361   0.5438 
11    C6      -0.1190  -36.0770   21.8860 C.ar    1  LIG  -0.2550   0.0862 
12    C7      -1.1230  -35.3990   21.1890 C.ar    1  LIG  -0.0321  -0.1500 
13    H4      -1.7552  -34.6955   21.7041 H       1  LIG   0.1623   0.1500 
14    C8      -1.2960  -35.6300   19.8690 C.ar    1  LIG  -0.2723  -0.1500 
15    H5      -2.0662  -35.1073   19.3273 H       1  LIG   0.1522   0.1500 
16    C9      -0.4670  -36.5450   19.2400 C.ar    1  LIG   0.4373   0.1600 
17    H6      -0.5947  -36.7554   18.1915 H       1  LIG   0.0280   0.1500 
18    N3       0.5220  -37.2120   19.8740 N.ar    1  LIG  -0.6893  -0.6200 
19    C10      0.7040  -36.9790   21.1800 C.ar    1  LIG   0.6480   0.4100 
20    N4       1.7670  -37.6730   21.8260 N.pl3   1  LIG  -0.6924  -0.3690 
21    C11      2.7540  -36.8570   22.5840 C.ar    1  LIG   0.5805   0.4100 
22    C12      2.9040  -34.5090   25.6010 C.3     1  LIG  -0.0620   0.1435 
23    H7       2.2235  -33.7630   25.2820 H       1  LIG   0.0570   0.0000 
24    H8       2.4436  -35.1154   26.3371 H       1  LIG   0.0495   0.0000 
25    H9       3.7654  -34.0491   26.0108 H       1  LIG   0.0519   0.0000 
26    O1      -1.2400  -35.9060   23.9770 O.2     1  LIG  -0.6361  -0.5700 
27    C13      2.3440  -38.7570   21.0360 C.3     1  LIG   0.1354   0.0690 
28    H10      3.1238  -38.3754   20.4296 H       1  LIG   0.0981   0.1000 
29    C14      2.9380  -39.8900   21.8010 C.3     1  LIG  -0.1181  -0.2000 
30    H11      3.8890  -40.1268   21.3997 H       1  LIG   0.0732   0.1000 
31    H12      3.0430  -39.6129   22.8177 H       1  LIG   0.0789   0.1000 
32    C15      1.6390  -40.0610   21.0880 C.3     1  LIG  -0.1196  -0.2000 
33    H13      0.6832  -39.9283   21.5242 H       1  LIG   0.0807   0.1000 
34    H14      1.5292  -40.4423   20.1061 H       1  LIG   0.0733   0.1000 
@<TRIPOS>BOND
1     2     1     ar
2     3     2     1
3     4     2     ar
4     5     4     1
5     6     4     ar
6     7     6     ar
7     8     7     1
8     9     8     1
9     10    8     1
10    11    10    1
11    12    11    ar
12    13    12    1
13    14    12    ar
14    15    14    1
15    16    14    ar
16    17    16    1
17    18    16    ar
18    19    11    ar
19    19    18    ar
20    20    19    1
21    21    1     ar
22    21    7     ar
23    21    20    1
24    22    6     1
25    23    22    1
26    24    22    1
27    25    22    1
28    26    10    2
29    27    20    1
30    28    27    1
31    29    27    1
32    30    29    1
33    31    29    1
34    32    27    1
35    32    29    1
36    33    32    1
37    34    32    1
@<TRIPOS>SUBSTRUCTURE
1   LIG    1    
 
########## Name        : 1VRT.lig
########## Description : AM1BCC_CHARGES =  -0.0002 ORIGINAL_CHARGES =  -0.0000

@<TRIPOS>MOLECULE
1VRT.lig
34    37    1     0     0    
SMALL
USER_CHARGES
@<TRIPOS>ATOM
1     N1       4.0540  -36.9310   22.2210 N.ar    1  LIG  -0.6650  -0.6200 
2     C1       4.9660  -36.2380   22.9390 C.ar    1  LIG   0.3947   0.1600 
3     H1       6.0082  -36.2811   22.6707 H       1  LIG   0.0281   0.1500 
4     C2       4.6240  -35.4500   24.0360 C.ar    1  LIG  -0.2334  -0.1500 
5     H2       5.3884  -34.9151   24.5740 H       1  LIG   0.1480   0.1500 
6     C3       3.3050  -35.3690   24.4150 C.ar    1  LIG  -0.0698  -0.1435 
7     C4       2.3460  -36.0770   23.6860 C.ar    1  LIG  -0.0398   0.1170 
8     N2       0.9890  -36.0280   24.1030 N.am    1  LIG  -0.4596  -0.5470 
9     H3       0.7643  -35.9928   25.0860 H       1  LIG   0.3311   0.3700 
10    C5      -0.1450  -36.0180   23.4080 C.2     1  LIG   0.7361   0.5438 
11    C6      -0.1190  -36.0770   21.8860 C.ar    1  LIG  -0.2550   0.0862 
12    C7      -1.1230  -35.3990   21.1890 C.ar    1  LIG  -0.0321  -0.1500 
13    H4      -1.7552  -34.6955   21.7041 H       1  LIG   0.1623   0.1500 
14    C8      -1.2960  -35.6300   19.8690 C.ar    1  LIG  -0.2723  -0.1500 
15    H5      -2.0662  -35.1073   19.3273 H       1  LIG   0.1522   0.1500 
16    C9      -0.4670  -36.5450   19.2400 C.ar    1  LIG   0.4373   0.1600 
17    H6      -0.5947  -36.7554   18.1915 H       1  LIG   0.0280   0.1500 
18    N3       0.5220  -37.2120   19.8740 N.ar    1  LIG  -0.6893  -0.6200 
19    C10      0.7040  -36.9790   21.1800 C.ar    1  LIG   0.6480   0.4100 
20    N4       1.7670  -37.6730   21.8260 N.pl3   1  LIG  -0.6924  -0.3690 
21    C11      2.7540  -36.8570   22.5840 C.ar    1  LIG   0.5805   0.4100 
22    C12      2.9040  -34.5090   25.6010 C.3     1  LIG  -0.0620   0.1435 
23    H7       2.2235  -33.7630   25.2820 H       1  LIG   0.0570   0.0000 
24    H8       2.4436  -35.1154   26.3371 H       1  LIG   0.0495   0.0000 
25    H9       3.7654  -34.0491   26.0108 H       1  LIG   0.0519   0.0000 
26    O1      -1.2400  -35.9060   23.9770 O.2     1  LIG  -0.6361  -0.5700 
27    C13      2.3440  -38.7570   21.0360 C.3     1  LIG   0.1354   0.0690 
28    H10      3.1238  -38.3754   20.4296 H       1  LIG   0.0981   0.1000 
29    C14      2.9380  -39.8900   21.8010 C.3     1  LIG  -0.1181  -0.2000 
30    H11      3.8890  -40.1268   21.3997 H       1  LIG   0.0732   0.1000 
31    H12      3.0430  -39.6129   22.8177 H       1  LIG   0.0789   0.1000 
32    C15      1.6390  -40.0610   21.0880 C.3     1  LIG  -0.1196  -0.2000 
33    H13      0.6832  -39.9283   21.5242 H       1  LIG   0.0807   0.1000 
34    H14      1.5292  -40.4423   20.1061 H       1  LIG   0.0733   0.1000 
@<TRIPOS>BOND
1     2     1     ar
2     3     2     1
3     4     2     ar
4     5     4     1
5     6     4     ar
6     7     6     ar
7     8     7     1
8     9     8     1
9     10    8     1
10    11    10    1
11    12    11    ar
12    13    12    1
13    14    12    ar
14    15    14    1
15    16    14    ar
16    17    16    1
17    18    16    ar
18    19    11    ar
19    19    18    ar
20    20    19    1
21    21    1     ar
22    21    7     ar
23    21    20    1
24    22    6     1
25    23    22    1
26    24    22    1
27    25    22    1
28    26    10    2
29    27    20    1
30    28    27    1
31    29    27    1
32    30    29    1
33    31    29    1
34    32    27    1
35    32    29    1
36    33    32    1
37    34    32    1
@<TRIPOS>SUBSTRUCTURE
1   LIG    1    
 
########## Name        : 1VRT.lig
########## Description : AM1BCC_CHARGES =  -0.0002 ORIGINAL_CHARGES =  -0.0000

@<TRIPOS>MOLECULE
1VRT.lig
34    37    1     0     0    
SMALL
USER_CHARGES
@<TRIPOS>ATOM
1     N1       4.0540  -36.9310   22.2210 N.ar    1  LIG  -0.6650  -0.6200 
2     C1       4.9660  -36.2380   22.9390 C.ar    1  LIG   0.3947   0.1600 
3     H1       6.0082  -36.2811   22.6707 H       1  LIG   0.0281   0.1500 
4     C2       4.6240  -35.4500   24.0360 C.ar    1  LIG  -0.2334  -0.1500 
5     H2       5.3884  -34.9151   24.5740 H       1  LIG   0.1480   0.1500 
6     C3       3.3050  -35.3690   24.4150 C.ar    1  LIG  -0.0698  -0.1435 
7     C4       2.3460  -36.0770   23.6860 C.ar    1  LIG  -0.0398   0.1170 
8     N2       0.9890  -36.0280   24.1030 N.am    1  LIG  -0.4596  -0.5470 
9     H3       0.7643  -35.9928   25.0860 H       1  LIG   0.3311   0.3700 
10    C5      -0.1450  -36.0180   23.4080 C.2     1  LIG   0.7361   0.5438 
11    C6      -0.1190  -36.0770   21.8860 C.ar    1  LIG  -0.2550   0.0862 
12    C7      -1.1230  -35.3990   21.1890 C.ar    1  LIG  -0.0321  -0.1500 
13    H4      -1.7552  -34.6955   21.7041 H       1  LIG   0.1623   0.1500 
14    C8      -1.2960  -35.6300   19.8690 C.ar    1  LIG  -0.2723  -0.1500 
15    H5      -2.0662  -35.1073   19.3273 H       1  LIG   0.1522   0.1500 
16    C9      -0.4670  -36.5450   19.2400 C.ar    1  LIG   0.4373   0.1600 
17    H6      -0.5947  -36.7554   18.1915 H       1  LIG   0.0280   0.1500 
18    N3       0.5220  -37.2120   19.8740 N.ar    1  LIG  -0.6893  -0.6200 
19    C10      0.7040  -36.9790   21.1800 C.ar    1  LIG   0.6480   0.4100 
20    N4       1.7670  -37.6730   21.8260 N.pl3   1  LIG  -0.6924  -0.3690 
21    C11      2.7540  -36.8570   22.5840 C.ar    1  LIG   0.5805   0.4100 
22    C12      2.9040  -34.5090   25.6010 C.3     1  LIG  -0.0620   0.1435 
23    H7       2.2235  -33.7630   25.2820 H       1  LIG   0.0570   0.0000 
24    H8       2.4436  -35.1154   26.3371 H       1  LIG   0.0495   0.0000 
25    H9       3.7654  -34.0491   26.0108 H       1  LIG   0.0519   0.0000 
26    O1      -1.2400  -35.9060   23.9770 O.2     1  LIG  -0.6361  -0.5700 
27    C13      2.3440  -38.7570   21.0360 C.3     1  LIG   0.1354   0.0690 
28    H10      3.1238  -38.3754   20.4296 H       1  LIG   0.0981   0.1000 
29    C14      2.9380  -39.8900   21.8010 C.3     1  LIG  -0.1181  -0.2000 
30    H11      3.8890  -40.1268   21.3997 H       1  LIG   0.0732   0.1000 
31    H12      3.0430  -39.6129   22.8177 H       1  LIG   0.0789   0.1000 
32    C15      1.6390  -40.0610   21.0880 C.3     1  LIG  -0.1196  -0.2000 
33    H13      0.6832  -39.9283   21.5242 H       1  LIG   0.0807   0.1000 
34    H14      1.5292  -40.4423   20.1061 H       1  LIG   0.0733   0.1000 
@<TRIPOS>BOND
1     2     1     ar
2     3     2     1
3     4     2     ar
4     5     4     1
5     6     4     ar
6     7     6     ar
7     8     7     1
8     9     8     1
9     10    8     1
10    11    10    1
11    12    11    ar
12    13    12    1
13    14    12    ar
14    15    14    1
15    16    14    ar
16    17    16    1
17    18    16    ar
18    19    11    ar
19    19    18    ar
20    20    19    1
21    21    1     ar
22    21    7     ar
23    21    20    1
24    22    6     1
25    23    22    1
26    24    22    1
27    25    22    1
28    26    10    2
29    27    20    1
30    28    27    1
31    29    27    1
32    30    29    1
33    31    29    1
34    32    27    1
35    32    29    1
36    33    32    1
37    34    32    1
@<TRIPOS>SUBSTRUCTURE
1   LIG    1    
 
########## Name        : 1VRT.lig
########## Description : AM1BCC_CHARGES =  -0.0002 ORIGINAL_CHARGES =  -0.0000

@<TRIPOS>MOLECULE
1VRT.lig
34    37    1     0     0    
SMALL
USER_CHARGES
@<TRIPOS>ATOM
1     N1       4.0540  -36.9310   22.2210 N.ar    1  LIG  -0.6650  -0.6200 
2     C1       4.9660  -36.2380   22.9390 C.ar    1  LIG   0.3947   0.1600 
3     H1       6.0082  -36.2811   22.6707 H       1  LIG   0.0281   0.1500 
4     C2       4.6240  -35.4500   24.0360 C.ar    1  LIG  -0.2334  -0.1500 
5     H2       5.3884  -34.9151   24.5740 H       1  LIG   0.1480   0.1500 
6     C3       3.3050  -35.3690   24.4150 C.ar    1  LIG  -0.0698  -0.1435 
7     C4       2.3460  -36.0770   23.6860 C.ar    1  LIG  -0.0398   0.1170 
8     N2       0.9890  -36.0280   24.1030 N.am    1  LIG  -0.4596  -0.5470 
9     H3       0.7643  -35.9928   25.0860 H       1  LIG   0.3311   0.3700 
10    C5      -0.1450  -36.0180   23.4080 C.2     1  LIG   0.7361   0.5438 
11    C6      -0.1190  -36.0770   21.8860 C.ar    1  LIG  -0.2550   0.0862 
12    C7      -1.1230  -35.3990   21.1890 C.ar    1  LIG  -0.0321  -0.1500 
13    H4      -1.7552  -34.6955   21.7041 H       1  LIG   0.1623   0.1500 
14    C8      -1.2960  -35.6300   19.8690 C.ar    1  LIG  -0.2723  -0.1500 
15    H5      -2.0662  -35.1073   19.3273 H       1  LIG   0.1522   0.1500 
16    C9      -0.4670  -36.5450   19.2400 C.ar    1  LIG   0.4373   0.1600 
17    H6      -0.5947  -36.7554   18.1915 H       1  LIG   0.0280   0.1500 
18    N3       0.5220  -37.2120   19.8740 N.ar    1  LIG  -0.6893  -0.6200 
19    C10      0.7040  -36.9790   21.1800 C.ar    1  LIG   0.6480   0.4100 
20    N4       1.7670  -37.6730   21.8260 N.pl3   1  LIG  -0.6924  -0.3690 
21    C11      2.7540  -36.8570   22.5840 C.ar    1  LIG   0.5805   0.4100 
22    C12      2.9040  -34.5090   25.6010 C.3     1  LIG  -0.0620   0.1435 
23    H7       2.2235  -33.7630   25.2820 H       1  LIG   0.0570   0.0000 
24    H8       2.4436  -35.1154   26.3371 H       1  LIG   0.0495   0.0000 
25    H9       3.7654  -34.0491   26.0108 H       1  LIG   0.0519   0.0000 
26    O1      -1.2400  -35.9060   23.9770 O.2     1  LIG  -0.6361  -0.5700 
27    C13      2.3440  -38.7570   21.0360 C.3     1  LIG   0.1354   0.0690 
28    H10      3.1238  -38.3754   20.4296 H       1  LIG   0.0981   0.1000 
29    C14      2.9380  -39.8900   21.8010 C.3     1  LIG  -0.1181  -0.2000 
30    H11      3.8890  -40.1268   21.3997 H       1  LIG   0.0732   0.1000 
31    H12      3.0430  -39.6129   22.8177 H       1  LIG   0.0789   0.1000 
32    C15      1.6390  -40.0610   21.0880 C.3     1  LIG  -0.1196  -0.2000 
33    H13      0.6832  -39.9283   21.5242 H       1  LIG   0.0807   0.1000 
34    H14      1.5292  -40.4423   20.1061 H       1  LIG   0.0733   0.1000 
@<TRIPOS>BOND
1     2     1     ar
2     3     2     1
3     4     2     ar
4     5     4     1
5     6     4     ar
6     7     6     ar
7     8     7     1
8     9     8     1
9     10    8     1
10    11    10    1
11    12    11    ar
12    13    12    1
13    14    12    ar
14    15    14    1
15    16    14    ar
16    17    16    1
17    18    16    ar
18    19    11    ar
19    19    18    ar
20    20    19    1
21    21    1     ar
22    21    7     ar
23    21    20    1
24    22    6     1
25    23    22    1
26    24    22    1
27    25    22    1
28    26    10    2
29    27    20    1
30    28    27    1
31    29    27    1
32    30    29    1
33    31    29    1
34    32    27    1
35    32    29    1
36    33    32    1
37    34    32    1
@<TRIPOS>SUBSTRUCTURE
1   LIG    1    
 
########## Name        : 1VRT.lig
########## Description : AM1BCC_CHARGES =  -0.0002 ORIGINAL_CHARGES =  -0.0000

@<TRIPOS>MOLECULE
1VRT.lig
34    37    1     0     0    
SMALL
USER_CHARGES
@<TRIPOS>ATOM
1     N1       4.0540  -36.9310   22.2210 N.ar    1  LIG  -0.6650  -0.6200 
2     C1       4.9660  -36.2380   22.9390 C.ar    1  LIG   0.3947   0.1600 
3     H1       6.0082  -36.2811   22.6707 H       1  LIG   0.0281   0.1500 
4     C2       4.6240  -35.4500   24.0360 C.ar    1  LIG  -0.2334  -0.1500 
5     H2       5.3884  -34.9151   24.5740 H       1  LIG   0.1480   0.1500 
6     C3       3.3050  -35.3690   24.4150 C.ar    1  LIG  -0.0698  -0.1435 
7     C4       2.3460  -36.0770   23.6860 C.ar    1  LIG  -0.0398   0.1170 
8     N2       0.9890  -36.0280   24.1030 N.am    1  LIG  -0.4596  -0.5470 
9     H3       0.7643  -35.9928   25.0860 H       1  LIG   0.3311   0.3700 
10    C5      -0.1450  -36.0180   23.4080 C.2     1  LIG   0.7361   0.5438 
11    C6      -0.1190  -36.0770   21.8860 C.ar    1  LIG  -0.2550   0.0862 
12    C7      -1.1230  -35.3990   21.1890 C.ar    1  LIG  -0.0321  -0.1500 
13    H4      -1.7552  -34.6955   21.7041 H       1  LIG   0.1623   0.1500 
14    C8      -1.2960  -35.6300   19.8690 C.ar    1  LIG  -0.2723  -0.1500 
15    H5      -2.0662  -35.1073   19.3273 H       1  LIG   0.1522   0.1500 
16    C9      -0.4670  -36.5450   19.2400 C.ar    1  LIG   0.4373   0.1600 
17    H6      -0.5947  -36.7554   18.1915 H       1  LIG   0.0280   0.1500 
18    N3       0.5220  -37.2120   19.8740 N.ar    1  LIG  -0.6893  -0.6200 
19    C10      0.7040  -36.9790   21.1800 C.ar    1  LIG   0.6480   0.4100 
20    N4       1.7670  -37.6730   21.8260 N.pl3   1  LIG  -0.6924  -0.3690 
21    C11      2.7540  -36.8570   22.5840 C.ar    1  LIG   0.5805   0.4100 
22    C12      2.9040  -34.5090   25.6010 C.3     1  LIG  -0.0620   0.1435 
23    H7       2.2235  -33.7630   25.2820 H       1  LIG   0.0570   0.0000 
24    H8       2.4436  -35.1154   26.3371 H       1  LIG   0.0495   0.0000 
25    H9       3.7654  -34.0491   26.0108 H       1  LIG   0.0519   0.0000 
26    O1      -1.2400  -35.9060   23.9770 O.2     1  LIG  -0.6361  -0.5700 
27    C13      2.3440  -38.7570   21.0360 C.3     1  LIG   0.1354   0.0690 
28    H10      3.1238  -38.3754   20.4296 H       1  LIG   0.0981   0.1000 
29    C14      2.9380  -39.8900   21.8010 C.3     1  LIG  -0.1181  -0.2000 
30    H11      3.8890  -40.1268   21.3997 H       1  LIG   0.0732   0.1000 
31    H12      3.0430  -39.6129   22.8177 H       1  LIG   0.0789   0.1000 
32    C15      1.6390  -40.0610   21.0880 C.3     1  LIG  -0.1196  -0.2000 
33    H13      0.6832  -39.9283   21.5242 H       1  LIG   0.0807   0.1000 
34    H14      1.5292  -40.4423   20.1061 H       1  LIG   0.0733   0.1000 
@<TRIPOS>BOND
1     2     1     ar
2     3     2     1
3     4     2     ar
4     5     4     1
5     6     4     ar
6     7     6     ar
7     8     7     1
8     9     8     1
9     10    8     1
10    11    10    1
11    12    11    ar
12    13    12    1
13    14    12    ar
14    15    14    1
15    16    14    ar
16    17    16    1
17    18    16    ar
18    19    11    ar
19    19    18    ar
20    20    19    1
21    21    1     ar
22    21    7     ar
23    21    20    1
24    22    6     1
25    23    22    1
26    24    22    1
27    25    22    1
28    26    10    2
29    27    20    1
30    28    27    1
31    29    27    1
32    30    29    1
33    31    29    1
34    32    27    1
35    32    29    1
36    33    32    1
37    34    32    1
@<TRIPOS>SUBSTRUCTURE
1   LIG    1    
 
########## Name        : 1VRT.lig
########## Description : AM1BCC_CHARGES =  -0.0002 ORIGINAL_CHARGES =  -0.0000

@<TRIPOS>MOLECULE
1VRT.lig
34    37    1     0     0    
SMALL
USER_CHARGES
@<TRIPOS>ATOM
1     N1       4.0540  -36.9310   22.2210 N.ar    1  LIG  -0.6650  -0.6200 
2     C1       4.9660  -36.2380   22.9390 C.ar    1  LIG   0.3947   0.1600 
3     H1       6.0082  -36.2811   22.6707 H       1  LIG   0.0281   0.1500 
4     C2       4.6240  -35.4500   24.0360 C.ar    1  LIG  -0.2334  -0.1500 
5     H2       5.3884  -34.9151   24.5740 H       1  LIG   0.1480   0.1500 
6     C3       3.3050  -35.3690   24.4150 C.ar    1  LIG  -0.0698  -0.1435 
7     C4       2.3460  -36.0770   23.6860 C.ar    1  LIG  -0.0398   0.1170 
8     N2       0.9890  -36.0280   24.1030 N.am    1  LIG  -0.4596  -0.5470 
9     H3       0.7643  -35.9928   25.0860 H       1  LIG   0.3311   0.3700 
10    C5      -0.1450  -36.0180   23.4080 C.2     1  LIG   0.7361   0.5438 
11    C6      -0.1190  -36.0770   21.8860 C.ar    1  LIG  -0.2550   0.0862 
12    C7      -1.1230  -35.3990   21.1890 C.ar    1  LIG  -0.0321  -0.1500 
13    H4      -1.7552  -34.6955   21.7041 H       1  LIG   0.1623   0.1500 
14    C8      -1.2960  -35.6300   19.8690 C.ar    1  LIG  -0.2723  -0.1500 
15    H5      -2.0662  -35.1073   19.3273 H       1  LIG   0.1522   0.1500 
16    C9      -0.4670  -36.5450   19.2400 C.ar    1  LIG   0.4373   0.1600 
17    H6      -0.5947  -36.7554   18.1915 H       1  LIG   0.0280   0.1500 
18    N3       0.5220  -37.2120   19.8740 N.ar    1  LIG  -0.6893  -0.6200 
19    C10      0.7040  -36.9790   21.1800 C.ar    1  LIG   0.6480   0.4100 
20    N4       1.7670  -37.6730   21.8260 N.pl3   1  LIG  -0.6924  -0.3690 
21    C11      2.7540  -36.8570   22.5840 C.ar    1  LIG   0.5805   0.4100 
22    C12      2.9040  -34.5090   25.6010 C.3     1  LIG  -0.0620   0.1435 
23    H7       2.2235  -33.7630   25.2820 H       1  LIG   0.0570   0.0000 
24    H8       2.4436  -35.1154   26.3371 H       1  LIG   0.0495   0.0000 
25    H9       3.7654  -34.0491   26.0108 H       1  LIG   0.0519   0.0000 
26    O1      -1.2400  -35.9060   23.9770 O.2     1  LIG  -0.6361  -0.5700 
27    C13      2.3440  -38.7570   21.0360 C.3     1  LIG   0.1354   0.0690 
28    H10      3.1238  -38.3754   20.4296 H       1  LIG   0.0981   0.1000 
29    C14      2.9380  -39.8900   21.8010 C.3     1  LIG  -0.1181  -0.2000 
30    H11      3.8890  -40.1268   21.3997 H       1  LIG   0.0732   0.1000 
31    H12      3.0430  -39.6129   22.8177 H       1  LIG   0.0789   0.1000 
32    C15      1.6390  -40.0610   21.0880 C.3     1  LIG  -0.1196  -0.2000 
33    H13      0.6832  -39.9283   21.5242 H       1  LIG   0.0807   0.1000 
34    H14      1.5292  -40.4423   20.1061 H       1  LIG   0.0733   0.1000 
@<TRIPOS>BOND
1     2     1     ar
2     3     2     1
3     4     2     ar
4     5     4     1
5     6     4     ar
6     7     6     ar
7     8     7     1
8     9     8     1
9     10    8     1
10    11    10    1
11    12    11    ar
12    13    12    1
13    14    12    ar
14    15    14    1
15    16    14    ar
16    17    16    1
17    18    16    ar
18    19    11    ar
19    19    18    ar
20    20    19    1
21    21    1     ar
22    21    7     ar
23    21    20    1
24    22    6     1
25    23    22    1
26    24    22    1
27    25    22    1
28    26    10    2
29    27    20    1
30    28    27    1
31    29    27    1
32    30    29    1
33    31    29    1
34    32    27    1
35    32    29    1
36    33    32    1
37    34    32    1
@<TRIPOS>SUBSTRUCTURE
1   LIG    1    
 
########## Name        : 1VRT.lig
########## Description : AM1BCC_CHARGES =  -0.0002 ORIGINAL_CHARGES =  -0.0000

@<TRIPOS>MOLECULE
1VRT.lig
34    37    1     0     0    
SMALL
USER_CHARGES
@<TRIPOS>ATOM
1     N1       4.0540  -36.9310   22.2210 N.ar    1  LIG  -0.6650  -0.6200 
2     C1       4.9660  -36.2380   22.9390 C.ar    1  LIG   0.3947   0.1600 
3     H1       6.0082  -36.2811   22.6707 H       1  LIG   0.0281   0.1500 
4     C2       4.6240  -35.4500   24.0360 C.ar    1  LIG  -0.2334  -0.1500 
5     H2       5.3884  -34.9151   24.5740 H       1  LIG   0.1480   0.1500 
6     C3       3.3050  -35.3690   24.4150 C.ar    1  LIG  -0.0698  -0.1435 
7     C4       2.3460  -36.0770   23.6860 C.ar    1  LIG  -0.0398   0.1170 
8     N2       0.9890  -36.0280   24.1030 N.am    1  LIG  -0.4596  -0.5470 
9     H3       0.7643  -35.9928   25.0860 H       1  LIG   0.3311   0.3700 
10    C5      -0.1450  -36.0180   23.4080 C.2     1  LIG   0.7361   0.5438 
11    C6      -0.1190  -36.0770   21.8860 C.ar    1  LIG  -0.2550   0.0862 
12    C7      -1.1230  -35.3990   21.1890 C.ar    1  LIG  -0.0321  -0.1500 
13    H4      -1.7552  -34.6955   21.7041 H       1  LIG   0.1623   0.1500 
14    C8      -1.2960  -35.6300   19.8690 C.ar    1  LIG  -0.2723  -0.1500 
15    H5      -2.0662  -35.1073   19.3273 H       1  LIG   0.1522   0.1500 
16    C9      -0.4670  -36.5450   19.2400 C.ar    1  LIG   0.4373   0.1600 
17    H6      -0.5947  -36.7554   18.1915 H       1  LIG   0.0280   0.1500 
18    N3       0.5220  -37.2120   19.8740 N.ar    1  LIG  -0.6893  -0.6200 
19    C10      0.7040  -36.9790   21.1800 C.ar    1  LIG   0.6480   0.4100 
20    N4       1.7670  -37.6730   21.8260 N.pl3   1  LIG  -0.6924  -0.3690 
21    C11      2.7540  -36.8570   22.5840 C.ar    1  LIG   0.5805   0.4100 
22    C12      2.9040  -34.5090   25.6010 C.3     1  LIG  -0.0620   0.1435 
23    H7       2.2235  -33.7630   25.2820 H       1  LIG   0.0570   0.0000 
24    H8       2.4436  -35.1154   26.3371 H       1  LIG   0.0495   0.0000 
25    H9       3.7654  -34.0491   26.0108 H       1  LIG   0.0519   0.0000 
26    O1      -1.2400  -35.9060   23.9770 O.2     1  LIG  -0.6361  -0.5700 
27    C13      2.3440  -38.7570   21.0360 C.3     1  LIG   0.1354   0.0690 
28    H10      3.1238  -38.3754   20.4296 H       1  LIG   0.0981   0.1000 
29    C14      2.9380  -39.8900   21.8010 C.3     1  LIG  -0.1181  -0.2000 
30    H11      3.8890  -40.1268   21.3997 H       1  LIG   0.0732   0.1000 
31    H12      3.0430  -39.6129   22.8177 H       1  LIG   0.0789   0.1000 
32    C15      1.6390  -40.0610   21.0880 C.3     1  LIG  -0.1196  -0.2000 
33    H13      0.6832  -39.9283   21.5242 H       1  LIG   0.0807   0.1000 
34    H14      1.5292  -40.4423   20.1061 H       1  LIG   0.0733   0.1000 
@<TRIPOS>BOND
1     2     1     ar
2     3     2     1
3     4     2     ar
4     5     4     1
5     6     4     ar
6     7     6     ar
7     8     7     1
8     9     8     1
9     10    8     1
10    11    10    1
11    12    11    ar
12    13    12    1
13    14    12    ar
14    15    14    1
15    16    14    ar
16    17    16    1
17    18    16    ar
18    19    11    ar
19    19    18    ar
20    20    19    1
21    21    1     ar
22    21    7     ar
23    21    20    1
24    22    6     1
25    23    22    1
26    24    22    1
27    25    22    1
28    26    10    2
29    27    20    1
30    28    27    1
31    29    27    1
32    30    29    1
33    31    29    1
34    32    27    1
35    32    29    1
36    33    32    1
37    34    32    1
@<TRIPOS>SUBSTRUCTURE
1   LIG    1    
 
########## Name        : 1VRT.lig
########## Description : AM1BCC_CHARGES =  -0.0002 ORIGINAL_CHARGES =  -0.0000

@<TRIPOS>MOLECULE
1VRT.lig
34    37    1     0     0    
SMALL
USER_CHARGES
@<TRIPOS>ATOM
1     N1       4.0540  -36.9310   22.2210 N.ar    1  LIG  -0.6650  -0.6200 
2     C1       4.9660  -36.2380   22.9390 C.ar    1  LIG   0.3947   0.1600 
3     H1       6.0082  -36.2811   22.6707 H       1  LIG   0.0281   0.1500 
4     C2       4.6240  -35.4500   24.0360 C.ar    1  LIG  -0.2334  -0.1500 
5     H2       5.3884  -34.9151   24.5740 H       1  LIG   0.1480   0.1500 
6     C3       3.3050  -35.3690   24.4150 C.ar    1  LIG  -0.0698  -0.1435 
7     C4       2.3460  -36.0770   23.6860 C.ar    1  LIG  -0.0398   0.1170 
8     N2       0.9890  -36.0280   24.1030 N.am    1  LIG  -0.4596  -0.5470 
9     H3       0.7643  -35.9928   25.0860 H       1  LIG   0.3311   0.3700 
10    C5      -0.1450  -36.0180   23.4080 C.2     1  LIG   0.7361   0.5438 
11    C6      -0.1190  -36.0770   21.8860 C.ar    1  LIG  -0.2550   0.0862 
12    C7      -1.1230  -35.3990   21.1890 C.ar    1  LIG  -0.0321  -0.1500 
13    H4      -1.7552  -34.6955   21.7041 H       1  LIG   0.1623   0.1500 
14    C8      -1.2960  -35.6300   19.8690 C.ar    1  LIG  -0.2723  -0.1500 
15    H5      -2.0662  -35.1073   19.3273 H       1  LIG   0.1522   0.1500 
16    C9      -0.4670  -36.5450   19.2400 C.ar    1  LIG   0.4373   0.1600 
17    H6      -0.5947  -36.7554   18.1915 H       1  LIG   0.0280   0.1500 
18    N3       0.5220  -37.2120   19.8740 N.ar    1  LIG  -0.6893  -0.6200 
19    C10      0.7040  -36.9790   21.1800 C.ar    1  LIG   0.6480   0.4100 
20    N4       1.7670  -37.6730   21.8260 N.pl3   1  LIG  -0.6924  -0.3690 
21    C11      2.7540  -36.8570   22.5840 C.ar    1  LIG   0.5805   0.4100 
22    C12      2.9040  -34.5090   25.6010 C.3     1  LIG  -0.0620   0.1435 
23    H7       2.2235  -33.7630   25.2820 H       1  LIG   0.0570   0.0000 
24    H8       2.4436  -35.1154   26.3371 H       1  LIG   0.0495   0.0000 
25    H9       3.7654  -34.0491   26.0108 H       1  LIG   0.0519   0.0000 
26    O1      -1.2400  -35.9060   23.9770 O.2     1  LIG  -0.6361  -0.5700 
27    C13      2.3440  -38.7570   21.0360 C.3     1  LIG   0.1354   0.0690 
28    H10      3.1238  -38.3754   20.4296 H       1  LIG   0.0981   0.1000 
29    C14      2.9380  -39.8900   21.8010 C.3     1  LIG  -0.1181  -0.2000 
30    H11      3.8890  -40.1268   21.3997 H       1  LIG   0.0732   0.1000 
31    H12      3.0430  -39.6129   22.8177 H       1  LIG   0.0789   0.1000 
32    C15      1.6390  -40.0610   21.0880 C.3     1  LIG  -0.1196  -0.2000 
33    H13      0.6832  -39.9283   21.5242 H       1  LIG   0.0807   0.1000 
34    H14      1.5292  -40.4423   20.1061 H       1  LIG   0.0733   0.1000 
@<TRIPOS>BOND
1     2     1     ar
2     3     2     1
3     4     2     ar
4     5     4     1
5     6     4     ar
6     7     6     ar
7     8     7     1
8     9     8     1
9     10    8     1
10    11    10    1
11    12    11    ar
12    13    12    1
13    14    12    ar
14    15    14    1
15    16    14    ar
16    17    16    1
17    18    16    ar
18    19    11    ar
19    19    18    ar
20    20    19    1
21    21    1     ar
22    21    7     ar
23    21    20    1
24    22    6     1
25    23    22    1
26    24    22    1
27    25    22    1
28    26    10    2
29    27    20    1
30    28    27    1
31    29    27    1
32    30    29    1
33    31    29    1
34    32    27    1
35    32    29    1
36    33    32    1
37    34    32    1
@<TRIPOS>SUBSTRUCTURE
1   LIG    1    
 
########## Name        : 1VRT.lig
########## Description : AM1BCC_CHARGES =  -0.0002 ORIGINAL_CHARGES =  -0.0000

@<TRIPOS>MOLECULE
1VRT.lig
34    37    1     0     0    
SMALL
USER_CHARGES
@<TRIPOS>ATOM
1     N1       4.0540  -36.9310   22.2210 N.ar    1  LIG  -0.6650  -0.6200 
2     C1       4.9660  -36.2380   22.9390 C.ar    1  LIG   0.3947   0.1600 
3     H1       6.0082  -36.2811   22.6707 H       1  LIG   0.0281   0.1500 
4     C2       4.6240  -35.4500   24.0360 C.ar    1  LIG  -0.2334  -0.1500 
5     H2       5.3884  -34.9151   24.5740 H       1  LIG   0.1480   0.1500 
6     C3       3.3050  -35.3690   24.4150 C.ar    1  LIG  -0.0698  -0.1435 
7     C4       2.3460  -36.0770   23.6860 C.ar    1  LIG  -0.0398   0.1170 
8     N2       0.9890  -36.0280   24.1030 N.am    1  LIG  -0.4596  -0.5470 
9     H3       0.7643  -35.9928   25.0860 H       1  LIG   0.3311   0.3700 
10    C5      -0.1450  -36.0180   23.4080 C.2     1  LIG   0.7361   0.5438 
11    C6      -0.1190  -36.0770   21.8860 C.ar    1  LIG  -0.2550   0.0862 
12    C7      -1.1230  -35.3990   21.1890 C.ar    1  LIG  -0.0321  -0.1500 
13    H4      -1.7552  -34.6955   21.7041 H       1  LIG   0.1623   0.1500 
14    C8      -1.2960  -35.6300   19.8690 C.ar    1  LIG  -0.2723  -0.1500 
15    H5      -2.0662  -35.1073   19.3273 H       1  LIG   0.1522   0.1500 
16    C9      -0.4670  -36.5450   19.2400 C.ar    1  LIG   0.4373   0.1600 
17    H6      -0.5947  -36.7554   18.1915 H       1  LIG   0.0280   0.1500 
18    N3       0.5220  -37.2120   19.8740 N.ar    1  LIG  -0.6893  -0.6200 
19    C10      0.7040  -36.9790   21.1800 C.ar    1  LIG   0.6480   0.4100 
20    N4       1.7670  -37.6730   21.8260 N.pl3   1  LIG  -0.6924  -0.3690 
21    C11      2.7540  -36.8570   22.5840 C.ar    1  LIG   0.5805   0.4100 
22    C12      2.9040  -34.5090   25.6010 C.3     1  LIG  -0.0620   0.1435 
23    H7       2.2235  -33.7630   25.2820 H       1  LIG   0.0570   0.0000 
24    H8       2.4436  -35.1154   26.3371 H       1  LIG   0.0495   0.0000 
25    H9       3.7654  -34.0491   26.0108 H       1  LIG   0.0519   0.0000 
26    O1      -1.2400  -35.9060   23.9770 O.2     1  LIG  -0.6361  -0.5700 
27    C13      2.3440  -38.7570   21.0360 C.3     1  LIG   0.1354   0.0690 
28    H10      3.1238  -38.3754   20.4296 H       1  LIG   0.0981   0.1000 
29    C14      2.9380  -39.8900   21.8010 C.3     1  LIG  -0.1181  -0.2000 
30    H11      3.8890  -40.1268   21.3997 H       1  LIG   0.0732   0.1000 
31    H12      3.0430  -39.6129   22.8177 H       1  LIG   0.0789   0.1000 
32    C15      1.6390  -40.0610   21.0880 C.3     1  LIG  -0.1196  -0.2000 
33    H13      0.6832  -39.9283   21.5242 H       1  LIG   0.0807   0.1000 
34    H14      1.5292  -40.4423   20.1061 H       1  LIG   0.0733   0.1000 
@<TRIPOS>BOND
1     2     1     ar
2     3     2     1
3     4     2     ar
4     5     4     1
5     6     4     ar
6     7     6     ar
7     8     7     1
8     9     8     1
9     10    8     1
10    11    10    1
11    12    11    ar
12    13    12    1
13    14    12    ar
14    15    14    1
15    16    14    ar
16    17    16    1
17    18    16    ar
18    19    11    ar
19    19    18    ar
20    20    19    1
21    21    1     ar
22    21    7     ar
23    21    20    1
24    22    6     1
25    23    22    1
26    24    22    1
27    25    22    1
28    26    10    2
29    27    20    1
30    28    27    1
31    29    27    1
32    30    29    1
33    31    29    1
34    32    27    1
35    32    29    1
36    33    32    1
37    34    32    1
@<TRIPOS>SUBSTRUCTURE
1   LIG    1    
 
########## Name        : 1VRT.lig
########## Description : AM1BCC_CHARGES =  -0.0002 ORIGINAL_CHARGES =  -0.0000

@<TRIPOS>MOLECULE
1VRT.lig
34    37    1     0     0    
SMALL
USER_CHARGES
@<TRIPOS>ATOM
1     N1       4.0540  -36.9310   22.2210 N.ar    1  LIG  -0.6650  -0.6200 
2     C1       4.9660  -36.2380   22.9390 C.ar    1  LIG   0.3947   0.1600 
3     H1       6.0082  -36.2811   22.6707 H       1  LIG   0.0281   0.1500 
4     C2       4.6240  -35.4500   24.0360 C.ar    1  LIG  -0.2334  -0.1500 
5     H2       5.3884  -34.9151   24.5740 H       1  LIG   0.1480   0.1500 
6     C3       3.3050  -35.3690   24.4150 C.ar    1  LIG  -0.0698  -0.1435 
7     C4       2.3460  -36.0770   23.6860 C.ar    1  LIG  -0.0398   0.1170 
8     N2       0.9890  -36.0280   24.1030 N.am    1  LIG  -0.4596  -0.5470 
9     H3       0.7643  -35.9928   25.0860 H       1  LIG   0.3311   0.3700 
10    C5      -0.1450  -36.0180   23.4080 C.2     1  LIG   0.7361   0.5438 
11    C6      -0.1190  -36.0770   21.8860 C.ar    1  LIG  -0.2550   0.0862 
12    C7      -1.1230  -35.3990   21.1890 C.ar    1  LIG  -0.0321  -0.1500 
13    H4      -1.7552  -34.6955   21.7041 H       1  LIG   0.1623   0.1500 
14    C8      -1.2960  -35.6300   19.8690 C.ar    1  LIG  -0.2723  -0.1500 
15    H5      -2.0662  -35.1073   19.3273 H       1  LIG   0.1522   0.1500 
16    C9      -0.4670  -36.5450   19.2400 C.ar    1  LIG   0.4373   0.1600 
17    H6      -0.5947  -36.7554   18.1915 H       1  LIG   0.0280   0.1500 
18    N3       0.5220  -37.2120   19.8740 N.ar    1  LIG  -0.6893  -0.6200 
19    C10      0.7040  -36.9790   21.1800 C.ar    1  LIG   0.6480   0.4100 
20    N4       1.7670  -37.6730   21.8260 N.pl3   1  LIG  -0.6924  -0.3690 
21    C11      2.7540  -36.8570   22.5840 C.ar    1  LIG   0.5805   0.4100 
22    C12      2.9040  -34.5090   25.6010 C.3     1  LIG  -0.0620   0.1435 
23    H7       2.2235  -33.7630   25.2820 H       1  LIG   0.0570   0.0000 
24    H8       2.4436  -35.1154   26.3371 H       1  LIG   0.0495   0.0000 
25    H9       3.7654  -34.0491   26.0108 H       1  LIG   0.0519   0.0000 
26    O1      -1.2400  -35.9060   23.9770 O.2     1  LIG  -0.6361  -0.5700 
27    C13      2.3440  -38.7570   21.0360 C.3     1  LIG   0.1354   0.0690 
28    H10      3.1238  -38.3754   20.4296 H       1  LIG   0.0981   0.1000 
29    C14      2.9380  -39.8900   21.8010 C.3     1  LIG  -0.1181  -0.2000 
30    H11      3.8890  -40.1268   21.3997 H       1  LIG   0.0732   0.1000 
31    H12      3.0430  -39.6129   22.8177 H       1  LIG   0.0789   0.1000 
32    C15      1.6390  -40.0610   21.0880 C.3     1  LIG  -0.1196  -0.2000 
33    H13      0.6832  -39.9283   21.5242 H       1  LIG   0.0807   0.1000 
34    H14      1.5292  -40.4423   20.1061 H       1  LIG   0.0733   0.1000 
@<TRIPOS>BOND
1     2     1     ar
2     3     2     1
3     4     2     ar
4     5     4     1
5     6     4     ar
6     7     6     ar
7     8     7     1
8     9     8     1
9     10    8     1
10    11    10    1
11    12    11    ar
12    13    12    1
13    14    12    ar
14    15    14    1
15    16    14    ar
16    17    16    1
17    18    16    ar
18    19    11    ar
19    19    18    ar
20    20    19    1
21    21    1     ar
22    21    7     ar
23    21    20    1
24    22    6     1
25    23    22    1
26    24    22    1
27    25    22    1
28    26    10    2
29    27    20    1
30    28    27    1
31    29    27    1
32    30    29    1
33    31    29    1
34    32    27    1
35    32    29    1
36    33    32    1
37    34    32    1
@<TRIPOS>SUBSTRUCTURE
1   LIG    1    
 
########## Name        : 1VRT.lig
########## Description : AM1BCC_CHARGES =  -0.0002 ORIGINAL_CHARGES =  -0.0000

@<TRIPOS>MOLECULE
1VRT.lig
34    37    1     0     0    
SMALL
USER_CHARGES
@<TRIPOS>ATOM
1     N1       4.0540  -36.9310   22.2210 N.ar    1  LIG  -0.6650  -0.6200 
2     C1       4.9660  -36.2380   22.9390 C.ar    1  LIG   0.3947   0.1600 
3     H1       6.0082  -36.2811   22.6707 H       1  LIG   0.0281   0.1500 
4     C2       4.6240  -35.4500   24.0360 C.ar    1  LIG  -0.2334  -0.1500 
5     H2       5.3884  -34.9151   24.5740 H       1  LIG   0.1480   0.1500 
6     C3       3.3050  -35.3690   24.4150 C.ar    1  LIG  -0.0698  -0.1435 
7     C4       2.3460  -36.0770   23.6860 C.ar    1  LIG  -0.0398   0.1170 
8     N2       0.9890  -36.0280   24.1030 N.am    1  LIG  -0.4596  -0.5470 
9     H3       0.7643  -35.9928   25.0860 H       1  LIG   0.3311   0.3700 
10    C5      -0.1450  -36.0180   23.4080 C.2     1  LIG   0.7361   0.5438 
11    C6      -0.1190  -36.0770   21.8860 C.ar    1  LIG  -0.2550   0.0862 
12    C7      -1.1230  -35.3990   21.1890 C.ar    1  LIG  -0.0321  -0.1500 
13    H4      -1.7552  -34.6955   21.7041 H       1  LIG   0.1623   0.1500 
14    C8      -1.2960  -35.6300   19.8690 C.ar    1  LIG  -0.2723  -0.1500 
15    H5      -2.0662  -35.1073   19.3273 H       1  LIG   0.1522   0.1500 
16    C9      -0.4670  -36.5450   19.2400 C.ar    1  LIG   0.4373   0.1600 
17    H6      -0.5947  -36.7554   18.1915 H       1  LIG   0.0280   0.1500 
18    N3       0.5220  -37.2120   19.8740 N.ar    1  LIG  -0.6893  -0.6200 
19    C10      0.7040  -36.9790   21.1800 C.ar    1  LIG   0.6480   0.4100 
20    N4       1.7670  -37.6730   21.8260 N.pl3   1  LIG  -0.6924  -0.3690 
21    C11      2.7540  -36.8570   22.5840 C.ar    1  LIG   0.5805   0.4100 
22    C12      2.9040  -34.5090   25.6010 C.3     1  LIG  -0.0620   0.1435 
23    H7       2.2235  -33.7630   25.2820 H       1  LIG   0.0570   0.0000 
24    H8       2.4436  -35.1154   26.3371 H       1  LIG   0.0495   0.0000 
25    H9       3.7654  -34.0491   26.0108 H       1  LIG   0.0519   0.0000 
26    O1      -1.2400  -35.9060   23.9770 O.2     1  LIG  -0.6361  -0.5700 
27    C13      2.3440  -38.7570   21.0360 C.3     1  LIG   0.1354   0.0690 
28    H10      3.1238  -38.3754   20.4296 H       1  LIG   0.0981   0.1000 
29    C14      2.9380  -39.8900   21.8010 C.3     1  LIG  -0.1181  -0.2000 
30    H11      3.8890  -40.1268   21.3997 H       1  LIG   0.0732   0.1000 
31    H12      3.0430  -39.6129   22.8177 H       1  LIG   0.0789   0.1000 
32    C15      1.6390  -40.0610   21.0880 C.3     1  LIG  -0.1196  -0.2000 
33    H13      0.6832  -39.9283   21.5242 H       1  LIG   0.0807   0.1000 
34    H14      1.5292  -40.4423   20.1061 H       1  LIG   0.0733   0.1000 
@<TRIPOS>BOND
1     2     1     ar
2     3     2     1
3     4     2     ar
4     5     4     1
5     6     4     ar
6     7     6     ar
7     8     7     1
8     9     8     1
9     10    8     1
10    11    10    1
11    12    11    ar
12    13    12    1
13    14    12    ar
14    15    14    1
15    16    14    ar
16    17    16    1
17    18    16    ar
18    19    11    ar
19    19    18    ar
20    20    19    1
21    21    1     ar
22    21    7     ar
23    21    20    1
24    22    6     1
25    23    22    1
26    24    22    1
27    25    22    1
28    26    10    2
29    27    20    1
30    28    27    1
31    29    27    1
32    30    29    1
33    31    29    1
34    32    27    1
35    32    29    1
36    33    32    1
37    34    32    1
@<TRIPOS>SUBSTRUCTURE
1   LIG    1    
 
########## Name        : 1VRT.lig
########## Description : AM1BCC_CHARGES =  -0.0002 ORIGINAL_CHARGES =  -0.0000

@<TRIPOS>MOLECULE
1VRT.lig
34    37    1     0     0    
SMALL
USER_CHARGES
@<TRIPOS>ATOM
1     N1       4.0540  -36.9310   22.2210 N.ar    1  LIG  -0.6650  -0.6200 
2     C1       4.9660  -36.2380   22.9390 C.ar    1  LIG   0.3947   0.1600 
3     H1       6.0082  -36.2811   22.6707 H       1  LIG   0.0281   0.1500 
4     C2       4.6240  -35.4500   24.0360 C.ar    1  LIG  -0.2334  -0.1500 
5     H2       5.3884  -34.9151   24.5740 H       1  LIG   0.1480   0.1500 
6     C3       3.3050  -35.3690   24.4150 C.ar    1  LIG  -0.0698  -0.1435 
7     C4       2.3460  -36.0770   23.6860 C.ar    1  LIG  -0.0398   0.1170 
8     N2       0.9890  -36.0280   24.1030 N.am    1  LIG  -0.4596  -0.5470 
9     H3       0.7643  -35.9928   25.0860 H       1  LIG   0.3311   0.3700 
10    C5      -0.1450  -36.0180   23.4080 C.2     1  LIG   0.7361   0.5438 
11    C6      -0.1190  -36.0770   21.8860 C.ar    1  LIG  -0.2550   0.0862 
12    C7      -1.1230  -35.3990   21.1890 C.ar    1  LIG  -0.0321  -0.1500 
13    H4      -1.7552  -34.6955   21.7041 H       1  LIG   0.1623   0.1500 
14    C8      -1.2960  -35.6300   19.8690 C.ar    1  LIG  -0.2723  -0.1500 
15    H5      -2.0662  -35.1073   19.3273 H       1  LIG   0.1522   0.1500 
16    C9      -0.4670  -36.5450   19.2400 C.ar    1  LIG   0.4373   0.1600 
17    H6      -0.5947  -36.7554   18.1915 H       1  LIG   0.0280   0.1500 
18    N3       0.5220  -37.2120   19.8740 N.ar    1  LIG  -0.6893  -0.6200 
19    C10      0.7040  -36.9790   21.1800 C.ar    1  LIG   0.6480   0.4100 
20    N4       1.7670  -37.6730   21.8260 N.pl3   1  LIG  -0.6924  -0.3690 
21    C11      2.7540  -36.8570   22.5840 C.ar    1  LIG   0.5805   0.4100 
22    C12      2.9040  -34.5090   25.6010 C.3     1  LIG  -0.0620   0.1435 
23    H7       2.2235  -33.7630   25.2820 H       1  LIG   0.0570   0.0000 
24    H8       2.4436  -35.1154   26.3371 H       1  LIG   0.0495   0.0000 
25    H9       3.7654  -34.0491   26.0108 H       1  LIG   0.0519   0.0000 
26    O1      -1.2400  -35.9060   23.9770 O.2     1  LIG  -0.6361  -0.5700 
27    C13      2.3440  -38.7570   21.0360 C.3     1  LIG   0.1354   0.0690 
28    H10      3.1238  -38.3754   20.4296 H       1  LIG   0.0981   0.1000 
29    C14      2.9380  -39.8900   21.8010 C.3     1  LIG  -0.1181  -0.2000 
30    H11      3.8890  -40.1268   21.3997 H       1  LIG   0.0732   0.1000 
31    H12      3.0430  -39.6129   22.8177 H       1  LIG   0.0789   0.1000 
32    C15      1.6390  -40.0610   21.0880 C.3     1  LIG  -0.1196  -0.2000 
33    H13      0.6832  -39.9283   21.5242 H       1  LIG   0.0807   0.1000 
34    H14      1.5292  -40.4423   20.1061 H       1  LIG   0.0733   0.1000 
@<TRIPOS>BOND
1     2     1     ar
2     3     2     1
3     4     2     ar
4     5     4     1
5     6     4     ar
6     7     6     ar
7     8     7     1
8     9     8     1
9     10    8     1
10    11    10    1
11    12    11    ar
12    13    12    1
13    14    12    ar
14    15    14    1
15    16    14    ar
16    17    16    1
17    18    16    ar
18    19    11    ar
19    19    18    ar
20    20    19    1
21    21    1     ar
22    21    7     ar
23    21    20    1
24    22    6     1
25    23    22    1
26    24    22    1
27    25    22    1
28    26    10    2
29    27    20    1
30    28    27    1
31    29    27    1
32    30    29    1
33    31    29    1
34    32    27    1
35    32    29    1
36    33    32    1
37    34    32    1
@<TRIPOS>SUBSTRUCTURE
1   LIG    1    
 
########## Name        : 1VRT.lig
########## Description : AM1BCC_CHARGES =  -0.0002 ORIGINAL_CHARGES =  -0.0000

@<TRIPOS>MOLECULE
1VRT.lig
34    37    1     0     0    
SMALL
USER_CHARGES
@<TRIPOS>ATOM
1     N1       4.0540  -36.9310   22.2210 N.ar    1  LIG  -0.6650  -0.6200 
2     C1       4.9660  -36.2380   22.9390 C.ar    1  LIG   0.3947   0.1600 
3     H1       6.0082  -36.2811   22.6707 H       1  LIG   0.0281   0.1500 
4     C2       4.6240  -35.4500   24.0360 C.ar    1  LIG  -0.2334  -0.1500 
5     H2       5.3884  -34.9151   24.5740 H       1  LIG   0.1480   0.1500 
6     C3       3.3050  -35.3690   24.4150 C.ar    1  LIG  -0.0698  -0.1435 
7     C4       2.3460  -36.0770   23.6860 C.ar    1  LIG  -0.0398   0.1170 
8     N2       0.9890  -36.0280   24.1030 N.am    1  LIG  -0.4596  -0.5470 
9     H3       0.7643  -35.9928   25.0860 H       1  LIG   0.3311   0.3700 
10    C5      -0.1450  -36.0180   23.4080 C.2     1  LIG   0.7361   0.5438 
11    C6      -0.1190  -36.0770   21.8860 C.ar    1  LIG  -0.2550   0.0862 
12    C7      -1.1230  -35.3990   21.1890 C.ar    1  LIG  -0.0321  -0.1500 
13    H4      -1.7552  -34.6955   21.7041 H       1  LIG   0.1623   0.1500 
14    C8      -1.2960  -35.6300   19.8690 C.ar    1  LIG  -0.2723  -0.1500 
15    H5      -2.0662  -35.1073   19.3273 H       1  LIG   0.1522   0.1500 
16    C9      -0.4670  -36.5450   19.2400 C.ar    1  LIG   0.4373   0.1600 
17    H6      -0.5947  -36.7554   18.1915 H       1  LIG   0.0280   0.1500 
18    N3       0.5220  -37.2120   19.8740 N.ar    1  LIG  -0.6893  -0.6200 
19    C10      0.7040  -36.9790   21.1800 C.ar    1  LIG   0.6480   0.4100 
20    N4       1.7670  -37.6730   21.8260 N.pl3   1  LIG  -0.6924  -0.3690 
21    C11      2.7540  -36.8570   22.5840 C.ar    1  LIG   0.5805   0.4100 
22    C12      2.9040  -34.5090   25.6010 C.3     1  LIG  -0.0620   0.1435 
23    H7       2.2235  -33.7630   25.2820 H       1  LIG   0.0570   0.0000 
24    H8       2.4436  -35.1154   26.3371 H       1  LIG   0.0495   0.0000 
25    H9       3.7654  -34.0491   26.0108 H       1  LIG   0.0519   0.0000 
26    O1      -1.2400  -35.9060   23.9770 O.2     1  LIG  -0.6361  -0.5700 
27    C13      2.3440  -38.7570   21.0360 C.3     1  LIG   0.1354   0.0690 
28    H10      3.1238  -38.3754   20.4296 H       1  LIG   0.0981   0.1000 
29    C14      2.9380  -39.8900   21.8010 C.3     1  LIG  -0.1181  -0.2000 
30    H11      3.8890  -40.1268   21.3997 H       1  LIG   0.0732   0.1000 
31    H12      3.0430  -39.6129   22.8177 H       1  LIG   0.0789   0.1000 
32    C15      1.6390  -40.0610   21.0880 C.3     1  LIG  -0.1196  -0.2000 
33    H13      0.6832  -39.9283   21.5242 H       1  LIG   0.0807   0.1000 
34    H14      1.5292  -40.4423   20.1061 H       1  LIG   0.0733   0.1000 
@<TRIPOS>BOND
1     2     1     ar
2     3     2     1
3     4     2     ar
4     5     4     1
5     6     4     ar
6     7     6     ar
7     8     7     1
8     9     8     1
9     10    8     1
10    11    10    1
11    12    11    ar
12    13    12    1
13    14    12    ar
14    15    14    1
15    16    14    ar
16    17    16    1
17    18    16    ar
18    19    11    ar
19    19    18    ar
20    20    19    1
21    21    1     ar
22    21    7     ar
23    21    20    1
24    22    6     1
25    23    22    1
26    24    22    1
27    25    22    1
28    26    10    2
29    27    20    1
30    28    27    1
31    29    27    1
32    30    29    1
33    31    29    1
34    32    27    1
35    32    29    1
36    33    32    1
37    34    32    1
@<TRIPOS>SUBSTRUCTURE
1   LIG    1    
 
########## Name        : 1VRT.lig
########## Description : AM1BCC_CHARGES =  -0.0002 ORIGINAL_CHARGES =  -0.0000

@<TRIPOS>MOLECULE
1VRT.lig
34    37    1     0     0    
SMALL
USER_CHARGES
@<TRIPOS>ATOM
1     N1       4.0540  -36.9310   22.2210 N.ar    1  LIG  -0.6650  -0.6200 
2     C1       4.9660  -36.2380   22.9390 C.ar    1  LIG   0.3947   0.1600 
3     H1       6.0082  -36.2811   22.6707 H       1  LIG   0.0281   0.1500 
4     C2       4.6240  -35.4500   24.0360 C.ar    1  LIG  -0.2334  -0.1500 
5     H2       5.3884  -34.9151   24.5740 H       1  LIG   0.1480   0.1500 
6     C3       3.3050  -35.3690   24.4150 C.ar    1  LIG  -0.0698  -0.1435 
7     C4       2.3460  -36.0770   23.6860 C.ar    1  LIG  -0.0398   0.1170 
8     N2       0.9890  -36.0280   24.1030 N.am    1  LIG  -0.4596  -0.5470 
9     H3       0.7643  -35.9928   25.0860 H       1  LIG   0.3311   0.3700 
10    C5      -0.1450  -36.0180   23.4080 C.2     1  LIG   0.7361   0.5438 
11    C6      -0.1190  -36.0770   21.8860 C.ar    1  LIG  -0.2550   0.0862 
12    C7      -1.1230  -35.3990   21.1890 C.ar    1  LIG  -0.0321  -0.1500 
13    H4      -1.7552  -34.6955   21.7041 H       1  LIG   0.1623   0.1500 
14    C8      -1.2960  -35.6300   19.8690 C.ar    1  LIG  -0.2723  -0.1500 
15    H5      -2.0662  -35.1073   19.3273 H       1  LIG   0.1522   0.1500 
16    C9      -0.4670  -36.5450   19.2400 C.ar    1  LIG   0.4373   0.1600 
17    H6      -0.5947  -36.7554   18.1915 H       1  LIG   0.0280   0.1500 
18    N3       0.5220  -37.2120   19.8740 N.ar    1  LIG  -0.6893  -0.6200 
19    C10      0.7040  -36.9790   21.1800 C.ar    1  LIG   0.6480   0.4100 
20    N4       1.7670  -37.6730   21.8260 N.pl3   1  LIG  -0.6924  -0.3690 
21    C11      2.7540  -36.8570   22.5840 C.ar    1  LIG   0.5805   0.4100 
22    C12      2.9040  -34.5090   25.6010 C.3     1  LIG  -0.0620   0.1435 
23    H7       2.2235  -33.7630   25.2820 H       1  LIG   0.0570   0.0000 
24    H8       2.4436  -35.1154   26.3371 H       1  LIG   0.0495   0.0000 
25    H9       3.7654  -34.0491   26.0108 H       1  LIG   0.0519   0.0000 
26    O1      -1.2400  -35.9060   23.9770 O.2     1  LIG  -0.6361  -0.5700 
27    C13      2.3440  -38.7570   21.0360 C.3     1  LIG   0.1354   0.0690 
28    H10      3.1238  -38.3754   20.4296 H       1  LIG   0.0981   0.1000 
29    C14      2.9380  -39.8900   21.8010 C.3     1  LIG  -0.1181  -0.2000 
30    H11      3.8890  -40.1268   21.3997 H       1  LIG   0.0732   0.1000 
31    H12      3.0430  -39.6129   22.8177 H       1  LIG   0.0789   0.1000 
32    C15      1.6390  -40.0610   21.0880 C.3     1  LIG  -0.1196  -0.2000 
33    H13      0.6832  -39.9283   21.5242 H       1  LIG   0.0807   0.1000 
34    H14      1.5292  -40.4423   20.1061 H       1  LIG   0.0733   0.1000 
@<TRIPOS>BOND
1     2     1     ar
2     3     2     1
3     4     2     ar
4     5     4     1
5     6     4     ar
6     7     6     ar
7     8     7     1
8     9     8     1
9     10    8     1
10    11    10    1
11    12    11    ar
12    13    12    1
13    14    12    ar
14    15    14    1
15    16    14    ar
16    17    16    1
17    18    16    ar
18    19    11    ar
19    19    18    ar
20    20    19    1
21    21    1     ar
22    21    7     ar
23    21    20    1
24    22    6     1
25    23    22    1
26    24    22    1
27    25    22    1
28    26    10    2
29    27    20    1
30    28    27    1
31    29    27    1
32    30    29    1
33    31    29    1
34    32    27    1
35    32    29    1
36    33    32    1
37    34    32    1
@<TRIPOS>SUBSTRUCTURE
1   LIG    1    
 
########## Name        : 1VRT.lig
########## Description : AM1BCC_CHARGES =  -0.0002 ORIGINAL_CHARGES =  -0.0000

@<TRIPOS>MOLECULE
1VRT.lig
34    37    1     0     0    
SMALL
USER_CHARGES
@<TRIPOS>ATOM
1     N1       4.0540  -36.9310   22.2210 N.ar    1  LIG  -0.6650  -0.6200 
2     C1       4.9660  -36.2380   22.9390 C.ar    1  LIG   0.3947   0.1600 
3     H1       6.0082  -36.2811   22.6707 H       1  LIG   0.0281   0.1500 
4     C2       4.6240  -35.4500   24.0360 C.ar    1  LIG  -0.2334  -0.1500 
5     H2       5.3884  -34.9151   24.5740 H       1  LIG   0.1480   0.1500 
6     C3       3.3050  -35.3690   24.4150 C.ar    1  LIG  -0.0698  -0.1435 
7     C4       2.3460  -36.0770   23.6860 C.ar    1  LIG  -0.0398   0.1170 
8     N2       0.9890  -36.0280   24.1030 N.am    1  LIG  -0.4596  -0.5470 
9     H3       0.7643  -35.9928   25.0860 H       1  LIG   0.3311   0.3700 
10    C5      -0.1450  -36.0180   23.4080 C.2     1  LIG   0.7361   0.5438 
11    C6      -0.1190  -36.0770   21.8860 C.ar    1  LIG  -0.2550   0.0862 
12    C7      -1.1230  -35.3990   21.1890 C.ar    1  LIG  -0.0321  -0.1500 
13    H4      -1.7552  -34.6955   21.7041 H       1  LIG   0.1623   0.1500 
14    C8      -1.2960  -35.6300   19.8690 C.ar    1  LIG  -0.2723  -0.1500 
15    H5      -2.0662  -35.1073   19.3273 H       1  LIG   0.1522   0.1500 
16    C9      -0.4670  -36.5450   19.2400 C.ar    1  LIG   0.4373   0.1600 
17    H6      -0.5947  -36.7554   18.1915 H       1  LIG   0.0280   0.1500 
18    N3       0.5220  -37.2120   19.8740 N.ar    1  LIG  -0.6893  -0.6200 
19    C10      0.7040  -36.9790   21.1800 C.ar    1  LIG   0.6480   0.4100 
20    N4       1.7670  -37.6730   21.8260 N.pl3   1  LIG  -0.6924  -0.3690 
21    C11      2.7540  -36.8570   22.5840 C.ar    1  LIG   0.5805   0.4100 
22    C12      2.9040  -34.5090   25.6010 C.3     1  LIG  -0.0620   0.1435 
23    H7       2.2235  -33.7630   25.2820 H       1  LIG   0.0570   0.0000 
24    H8       2.4436  -35.1154   26.3371 H       1  LIG   0.0495   0.0000 
25    H9       3.7654  -34.0491   26.0108 H       1  LIG   0.0519   0.0000 
26    O1      -1.2400  -35.9060   23.9770 O.2     1  LIG  -0.6361  -0.5700 
27    C13      2.3440  -38.7570   21.0360 C.3     1  LIG   0.1354   0.0690 
28    H10      3.1238  -38.3754   20.4296 H       1  LIG   0.0981   0.1000 
29    C14      2.9380  -39.8900   21.8010 C.3     1  LIG  -0.1181  -0.2000 
30    H11      3.8890  -40.1268   21.3997 H       1  LIG   0.0732   0.1000 
31    H12      3.0430  -39.6129   22.8177 H       1  LIG   0.0789   0.1000 
32    C15      1.6390  -40.0610   21.0880 C.3     1  LIG  -0.1196  -0.2000 
33    H13      0.6832  -39.9283   21.5242 H       1  LIG   0.0807   0.1000 
34    H14      1.5292  -40.4423   20.1061 H       1  LIG   0.0733   0.1000 
@<TRIPOS>BOND
1     2     1     ar
2     3     2     1
3     4     2     ar
4     5     4     1
5     6     4     ar
6     7     6     ar
7     8     7     1
8     9     8     1
9     10    8     1
10    11    10    1
11    12    11    ar
12    13    12    1
13    14    12    ar
14    15    14    1
15    16    14    ar
16    17    16    1
17    18    16    ar
18    19    11    ar
19    19    18    ar
20    20    19    1
21    21    1     ar
22    21    7     ar
23    21    20    1
24    22    6     1
25    23    22    1
26    24    22    1
27    25    22    1
28    26    10    2
29    27    20    1
30    28    27    1
31    29    27    1
32    30    29    1
33    31    29    1
34    32    27    1
35    32    29    1
36    33    32    1
37    34    32    1
@<TRIPOS>SUBSTRUCTURE
1   LIG    1    
 
########## Name        : 1VRT.lig
########## Description : AM1BCC_CHARGES =  -0.0002 ORIGINAL_CHARGES =  -0.0000

@<TRIPOS>MOLECULE
1VRT.lig
34    37    1     0     0    
SMALL
USER_CHARGES
@<TRIPOS>ATOM
1     N1       4.0540  -36.9310   22.2210 N.ar    1  LIG  -0.6650  -0.6200 
2     C1       4.9660  -36.2380   22.9390 C.ar    1  LIG   0.3947   0.1600 
3     H1       6.0082  -36.2811   22.6707 H       1  LIG   0.0281   0.1500 
4     C2       4.6240  -35.4500   24.0360 C.ar    1  LIG  -0.2334  -0.1500 
5     H2       5.3884  -34.9151   24.5740 H       1  LIG   0.1480   0.1500 
6     C3       3.3050  -35.3690   24.4150 C.ar    1  LIG  -0.0698  -0.1435 
7     C4       2.3460  -36.0770   23.6860 C.ar    1  LIG  -0.0398   0.1170 
8     N2       0.9890  -36.0280   24.1030 N.am    1  LIG  -0.4596  -0.5470 
9     H3       0.7643  -35.9928   25.0860 H       1  LIG   0.3311   0.3700 
10    C5      -0.1450  -36.0180   23.4080 C.2     1  LIG   0.7361   0.5438 
11    C6      -0.1190  -36.0770   21.8860 C.ar    1  LIG  -0.2550   0.0862 
12    C7      -1.1230  -35.3990   21.1890 C.ar    1  LIG  -0.0321  -0.1500 
13    H4      -1.7552  -34.6955   21.7041 H       1  LIG   0.1623   0.1500 
14    C8      -1.2960  -35.6300   19.8690 C.ar    1  LIG  -0.2723  -0.1500 
15    H5      -2.0662  -35.1073   19.3273 H       1  LIG   0.1522   0.1500 
16    C9      -0.4670  -36.5450   19.2400 C.ar    1  LIG   0.4373   0.1600 
17    H6      -0.5947  -36.7554   18.1915 H       1  LIG   0.0280   0.1500 
18    N3       0.5220  -37.2120   19.8740 N.ar    1  LIG  -0.6893  -0.6200 
19    C10      0.7040  -36.9790   21.1800 C.ar    1  LIG   0.6480   0.4100 
20    N4       1.7670  -37.6730   21.8260 N.pl3   1  LIG  -0.6924  -0.3690 
21    C11      2.7540  -36.8570   22.5840 C.ar    1  LIG   0.5805   0.4100 
22    C12      2.9040  -34.5090   25.6010 C.3     1  LIG  -0.0620   0.1435 
23    H7       2.2235  -33.7630   25.2820 H       1  LIG   0.0570   0.0000 
24    H8       2.4436  -35.1154   26.3371 H       1  LIG   0.0495   0.0000 
25    H9       3.7654  -34.0491   26.0108 H       1  LIG   0.0519   0.0000 
26    O1      -1.2400  -35.9060   23.9770 O.2     1  LIG  -0.6361  -0.5700 
27    C13      2.3440  -38.7570   21.0360 C.3     1  LIG   0.1354   0.0690 
28    H10      3.1238  -38.3754   20.4296 H       1  LIG   0.0981   0.1000 
29    C14      2.9380  -39.8900   21.8010 C.3     1  LIG  -0.1181  -0.2000 
30    H11      3.8890  -40.1268   21.3997 H       1  LIG   0.0732   0.1000 
31    H12      3.0430  -39.6129   22.8177 H       1  LIG   0.0789   0.1000 
32    C15      1.6390  -40.0610   21.0880 C.3     1  LIG  -0.1196  -0.2000 
33    H13      0.6832  -39.9283   21.5242 H       1  LIG   0.0807   0.1000 
34    H14      1.5292  -40.4423   20.1061 H       1  LIG   0.0733   0.1000 
@<TRIPOS>BOND
1     2     1     ar
2     3     2     1
3     4     2     ar
4     5     4     1
5     6     4     ar
6     7     6     ar
7     8     7     1
8     9     8     1
9     10    8     1
10    11    10    1
11    12    11    ar
12    13    12    1
13    14    12    ar
14    15    14    1
15    16    14    ar
16    17    16    1
17    18    16    ar
18    19    11    ar
19    19    18    ar
20    20    19    1
21    21    1     ar
22    21    7     ar
23    21    20    1
24    22    6     1
25    23    22    1
26    24    22    1
27    25    22    1
28    26    10    2
29    27    20    1
30    28    27    1
31    29    27    1
32    30    29    1
33    31    29    1
34    32    27    1
35    32    29    1
36    33    32    1
37    34    32    1
@<TRIPOS>SUBSTRUCTURE
1   LIG    1    
 
########## Name        : 1VRT.lig
########## Description : AM1BCC_CHARGES =  -0.0002 ORIGINAL_CHARGES =  -0.0000

@<TRIPOS>MOLECULE
1VRT.lig
34    37    1     0     0    
SMALL
USER_CHARGES
@<TRIPOS>ATOM
1     N1       4.0540  -36.9310   22.2210 N.ar    1  LIG  -0.6650  -0.6200 
2     C1       4.9660  -36.2380   22.9390 C.ar    1  LIG   0.3947   0.1600 
3     H1       6.0082  -36.2811   22.6707 H       1  LIG   0.0281   0.1500 
4     C2       4.6240  -35.4500   24.0360 C.ar    1  LIG  -0.2334  -0.1500 
5     H2       5.3884  -34.9151   24.5740 H       1  LIG   0.1480   0.1500 
6     C3       3.3050  -35.3690   24.4150 C.ar    1  LIG  -0.0698  -0.1435 
7     C4       2.3460  -36.0770   23.6860 C.ar    1  LIG  -0.0398   0.1170 
8     N2       0.9890  -36.0280   24.1030 N.am    1  LIG  -0.4596  -0.5470 
9     H3       0.7643  -35.9928   25.0860 H       1  LIG   0.3311   0.3700 
10    C5      -0.1450  -36.0180   23.4080 C.2     1  LIG   0.7361   0.5438 
11    C6      -0.1190  -36.0770   21.8860 C.ar    1  LIG  -0.2550   0.0862 
12    C7      -1.1230  -35.3990   21.1890 C.ar    1  LIG  -0.0321  -0.1500 
13    H4      -1.7552  -34.6955   21.7041 H       1  LIG   0.1623   0.1500 
14    C8      -1.2960  -35.6300   19.8690 C.ar    1  LIG  -0.2723  -0.1500 
15    H5      -2.0662  -35.1073   19.3273 H       1  LIG   0.1522   0.1500 
16    C9      -0.4670  -36.5450   19.2400 C.ar    1  LIG   0.4373   0.1600 
17    H6      -0.5947  -36.7554   18.1915 H       1  LIG   0.0280   0.1500 
18    N3       0.5220  -37.2120   19.8740 N.ar    1  LIG  -0.6893  -0.6200 
19    C10      0.7040  -36.9790   21.1800 C.ar    1  LIG   0.6480   0.4100 
20    N4       1.7670  -37.6730   21.8260 N.pl3   1  LIG  -0.6924  -0.3690 
21    C11      2.7540  -36.8570   22.5840 C.ar    1  LIG   0.5805   0.4100 
22    C12      2.9040  -34.5090   25.6010 C.3     1  LIG  -0.0620   0.1435 
23    H7       2.2235  -33.7630   25.2820 H       1  LIG   0.0570   0.0000 
24    H8       2.4436  -35.1154   26.3371 H       1  LIG   0.0495   0.0000 
25    H9       3.7654  -34.0491   26.0108 H       1  LIG   0.0519   0.0000 
26    O1      -1.2400  -35.9060   23.9770 O.2     1  LIG  -0.6361  -0.5700 
27    C13      2.3440  -38.7570   21.0360 C.3     1  LIG   0.1354   0.0690 
28    H10      3.1238  -38.3754   20.4296 H       1  LIG   0.0981   0.1000 
29    C14      2.9380  -39.8900   21.8010 C.3     1  LIG  -0.1181  -0.2000 
30    H11      3.8890  -40.1268   21.3997 H       1  LIG   0.0732   0.1000 
31    H12      3.0430  -39.6129   22.8177 H       1  LIG   0.0789   0.1000 
32    C15      1.6390  -40.0610   21.0880 C.3     1  LIG  -0.1196  -0.2000 
33    H13      0.6832  -39.9283   21.5242 H       1  LIG   0.0807   0.1000 
34    H14      1.5292  -40.4423   20.1061 H       1  LIG   0.0733   0.1000 
@<TRIPOS>BOND
1     2     1     ar
2     3     2     1
3     4     2     ar
4     5     4     1
5     6     4     ar
6     7     6     ar
7     8     7     1
8     9     8     1
9     10    8     1
10    11    10    1
11    12    11    ar
12    13    12    1
13    14    12    ar
14    15    14    1
15    16    14    ar
16    17    16    1
17    18    16    ar
18    19    11    ar
19    19    18    ar
20    20    19    1
21    21    1     ar
22    21    7     ar
23    21    20    1
24    22    6     1
25    23    22    1
26    24    22    1
27    25    22    1
28    26    10    2
29    27    20    1
30    28    27    1
31    29    27    1
32    30    29    1
33    31    29    1
34    32    27    1
35    32    29    1
36    33    32    1
37    34    32    1
@<TRIPOS>SUBSTRUCTURE
1   LIG    1    
 
########## Name        : 1VRT.lig
########## Description : AM1BCC_CHARGES =  -0.0002 ORIGINAL_CHARGES =  -0.0000

@<TRIPOS>MOLECULE
1VRT.lig
34    37    1     0     0    
SMALL
USER_CHARGES
@<TRIPOS>ATOM
1     N1       4.0540  -36.9310   22.2210 N.ar    1  LIG  -0.6650  -0.6200 
2     C1       4.9660  -36.2380   22.9390 C.ar    1  LIG   0.3947   0.1600 
3     H1       6.0082  -36.2811   22.6707 H       1  LIG   0.0281   0.1500 
4     C2       4.6240  -35.4500   24.0360 C.ar    1  LIG  -0.2334  -0.1500 
5     H2       5.3884  -34.9151   24.5740 H       1  LIG   0.1480   0.1500 
6     C3       3.3050  -35.3690   24.4150 C.ar    1  LIG  -0.0698  -0.1435 
7     C4       2.3460  -36.0770   23.6860 C.ar    1  LIG  -0.0398   0.1170 
8     N2       0.9890  -36.0280   24.1030 N.am    1  LIG  -0.4596  -0.5470 
9     H3       0.7643  -35.9928   25.0860 H       1  LIG   0.3311   0.3700 
10    C5      -0.1450  -36.0180   23.4080 C.2     1  LIG   0.7361   0.5438 
11    C6      -0.1190  -36.0770   21.8860 C.ar    1  LIG  -0.2550   0.0862 
12    C7      -1.1230  -35.3990   21.1890 C.ar    1  LIG  -0.0321  -0.1500 
13    H4      -1.7552  -34.6955   21.7041 H       1  LIG   0.1623   0.1500 
14    C8      -1.2960  -35.6300   19.8690 C.ar    1  LIG  -0.2723  -0.1500 
15    H5      -2.0662  -35.1073   19.3273 H       1  LIG   0.1522   0.1500 
16    C9      -0.4670  -36.5450   19.2400 C.ar    1  LIG   0.4373   0.1600 
17    H6      -0.5947  -36.7554   18.1915 H       1  LIG   0.0280   0.1500 
18    N3       0.5220  -37.2120   19.8740 N.ar    1  LIG  -0.6893  -0.6200 
19    C10      0.7040  -36.9790   21.1800 C.ar    1  LIG   0.6480   0.4100 
20    N4       1.7670  -37.6730   21.8260 N.pl3   1  LIG  -0.6924  -0.3690 
21    C11      2.7540  -36.8570   22.5840 C.ar    1  LIG   0.5805   0.4100 
22    C12      2.9040  -34.5090   25.6010 C.3     1  LIG  -0.0620   0.1435 
23    H7       2.2235  -33.7630   25.2820 H       1  LIG   0.0570   0.0000 
24    H8       2.4436  -35.1154   26.3371 H       1  LIG   0.0495   0.0000 
25    H9       3.7654  -34.0491   26.0108 H       1  LIG   0.0519   0.0000 
26    O1      -1.2400  -35.9060   23.9770 O.2     1  LIG  -0.6361  -0.5700 
27    C13      2.3440  -38.7570   21.0360 C.3     1  LIG   0.1354   0.0690 
28    H10      3.1238  -38.3754   20.4296 H       1  LIG   0.0981   0.1000 
29    C14      2.9380  -39.8900   21.8010 C.3     1  LIG  -0.1181  -0.2000 
30    H11      3.8890  -40.1268   21.3997 H       1  LIG   0.0732   0.1000 
31    H12      3.0430  -39.6129   22.8177 H       1  LIG   0.0789   0.1000 
32    C15      1.6390  -40.0610   21.0880 C.3     1  LIG  -0.1196  -0.2000 
33    H13      0.6832  -39.9283   21.5242 H       1  LIG   0.0807   0.1000 
34    H14      1.5292  -40.4423   20.1061 H       1  LIG   0.0733   0.1000 
@<TRIPOS>BOND
1     2     1     ar
2     3     2     1
3     4     2     ar
4     5     4     1
5     6     4     ar
6     7     6     ar
7     8     7     1
8     9     8     1
9     10    8     1
10    11    10    1
11    12    11    ar
12    13    12    1
13    14    12    ar
14    15    14    1
15    16    14    ar
16    17    16    1
17    18    16    ar
18    19    11    ar
19    19    18    ar
20    20    19    1
21    21    1     ar
22    21    7     ar
23    21    20    1
24    22    6     1
25    23    22    1
26    24    22    1
27    25    22    1
28    26    10    2
29    27    20    1
30    28    27    1
31    29    27    1
32    30    29    1
33    31    29    1
34    32    27    1
35    32    29    1
36    33    32    1
37    34    32    1
@<TRIPOS>SUBSTRUCTURE
1   LIG    1    
 
########## Name        : 1VRT.lig
########## Description : AM1BCC_CHARGES =  -0.0002 ORIGINAL_CHARGES =  -0.0000

@<TRIPOS>MOLECULE
1VRT.lig
34    37    1     0     0    
SMALL
USER_CHARGES
@<TRIPOS>ATOM
1     N1       4.0540  -36.9310   22.2210 N.ar    1  LIG  -0.6650  -0.6200 
2     C1       4.9660  -36.2380   22.9390 C.ar    1  LIG   0.3947   0.1600 
3     H1       6.0082  -36.2811   22.6707 H       1  LIG   0.0281   0.1500 
4     C2       4.6240  -35.4500   24.0360 C.ar    1  LIG  -0.2334  -0.1500 
5     H2       5.3884  -34.9151   24.5740 H       1  LIG   0.1480   0.1500 
6     C3       3.3050  -35.3690   24.4150 C.ar    1  LIG  -0.0698  -0.1435 
7     C4       2.3460  -36.0770   23.6860 C.ar    1  LIG  -0.0398   0.1170 
8     N2       0.9890  -36.0280   24.1030 N.am    1  LIG  -0.4596  -0.5470 
9     H3       0.7643  -35.9928   25.0860 H       1  LIG   0.3311   0.3700 
10    C5      -0.1450  -36.0180   23.4080 C.2     1  LIG   0.7361   0.5438 
11    C6      -0.1190  -36.0770   21.8860 C.ar    1  LIG  -0.2550   0.0862 
12    C7      -1.1230  -35.3990   21.1890 C.ar    1  LIG  -0.0321  -0.1500 
13    H4      -1.7552  -34.6955   21.7041 H       1  LIG   0.1623   0.1500 
14    C8      -1.2960  -35.6300   19.8690 C.ar    1  LIG  -0.2723  -0.1500 
15    H5      -2.0662  -35.1073   19.3273 H       1  LIG   0.1522   0.1500 
16    C9      -0.4670  -36.5450   19.2400 C.ar    1  LIG   0.4373   0.1600 
17    H6      -0.5947  -36.7554   18.1915 H       1  LIG   0.0280   0.1500 
18    N3       0.5220  -37.2120   19.8740 N.ar    1  LIG  -0.6893  -0.6200 
19    C10      0.7040  -36.9790   21.1800 C.ar    1  LIG   0.6480   0.4100 
20    N4       1.7670  -37.6730   21.8260 N.pl3   1  LIG  -0.6924  -0.3690 
21    C11      2.7540  -36.8570   22.5840 C.ar    1  LIG   0.5805   0.4100 
22    C12      2.9040  -34.5090   25.6010 C.3     1  LIG  -0.0620   0.1435 
23    H7       2.2235  -33.7630   25.2820 H       1  LIG   0.0570   0.0000 
24    H8       2.4436  -35.1154   26.3371 H       1  LIG   0.0495   0.0000 
25    H9       3.7654  -34.0491   26.0108 H       1  LIG   0.0519   0.0000 
26    O1      -1.2400  -35.9060   23.9770 O.2     1  LIG  -0.6361  -0.5700 
27    C13      2.3440  -38.7570   21.0360 C.3     1  LIG   0.1354   0.0690 
28    H10      3.1238  -38.3754   20.4296 H       1  LIG   0.0981   0.1000 
29    C14      2.9380  -39.8900   21.8010 C.3     1  LIG  -0.1181  -0.2000 
30    H11      3.8890  -40.1268   21.3997 H       1  LIG   0.0732   0.1000 
31    H12      3.0430  -39.6129   22.8177 H       1  LIG   0.0789   0.1000 
32    C15      1.6390  -40.0610   21.0880 C.3     1  LIG  -0.1196  -0.2000 
33    H13      0.6832  -39.9283   21.5242 H       1  LIG   0.0807   0.1000 
34    H14      1.5292  -40.4423   20.1061 H       1  LIG   0.0733   0.1000 
@<TRIPOS>BOND
1     2     1     ar
2     3     2     1
3     4     2     ar
4     5     4     1
5     6     4     ar
6     7     6     ar
7     8     7     1
8     9     8     1
9     10    8     1
10    11    10    1
11    12    11    ar
12    13    12    1
13    14    12    ar
14    15    14    1
15    16    14    ar
16    17    16    1
17    18    16    ar
18    19    11    ar
19    19    18    ar
20    20    19    1
21    21    1     ar
22    21    7     ar
23    21    20    1
24    22    6     1
25    23    22    1
26    24    22    1
27    25    22    1
28    26    10    2
29    27    20    1
30    28    27    1
31    29    27    1
32    30    29    1
33    31    29    1
34    32    27    1
35    32    29    1
36    33    32    1
37    34    32    1
@<TRIPOS>SUBSTRUCTURE
1   LIG    1    
 
########## Name        : 1VRT.lig
########## Description : AM1BCC_CHARGES =  -0.0002 ORIGINAL_CHARGES =  -0.0000

@<TRIPOS>MOLECULE
1VRT.lig
34    37    1     0     0    
SMALL
USER_CHARGES
@<TRIPOS>ATOM
1     N1       4.0540  -36.9310   22.2210 N.ar    1  LIG  -0.6650  -0.6200 
2     C1       4.9660  -36.2380   22.9390 C.ar    1  LIG   0.3947   0.1600 
3     H1       6.0082  -36.2811   22.6707 H       1  LIG   0.0281   0.1500 
4     C2       4.6240  -35.4500   24.0360 C.ar    1  LIG  -0.2334  -0.1500 
5     H2       5.3884  -34.9151   24.5740 H       1  LIG   0.1480   0.1500 
6     C3       3.3050  -35.3690   24.4150 C.ar    1  LIG  -0.0698  -0.1435 
7     C4       2.3460  -36.0770   23.6860 C.ar    1  LIG  -0.0398   0.1170 
8     N2       0.9890  -36.0280   24.1030 N.am    1  LIG  -0.4596  -0.5470 
9     H3       0.7643  -35.9928   25.0860 H       1  LIG   0.3311   0.3700 
10    C5      -0.1450  -36.0180   23.4080 C.2     1  LIG   0.7361   0.5438 
11    C6      -0.1190  -36.0770   21.8860 C.ar    1  LIG  -0.2550   0.0862 
12    C7      -1.1230  -35.3990   21.1890 C.ar    1  LIG  -0.0321  -0.1500 
13    H4      -1.7552  -34.6955   21.7041 H       1  LIG   0.1623   0.1500 
14    C8      -1.2960  -35.6300   19.8690 C.ar    1  LIG  -0.2723  -0.1500 
15    H5      -2.0662  -35.1073   19.3273 H       1  LIG   0.1522   0.1500 
16    C9      -0.4670  -36.5450   19.2400 C.ar    1  LIG   0.4373   0.1600 
17    H6      -0.5947  -36.7554   18.1915 H       1  LIG   0.0280   0.1500 
18    N3       0.5220  -37.2120   19.8740 N.ar    1  LIG  -0.6893  -0.6200 
19    C10      0.7040  -36.9790   21.1800 C.ar    1  LIG   0.6480   0.4100 
20    N4       1.7670  -37.6730   21.8260 N.pl3   1  LIG  -0.6924  -0.3690 
21    C11      2.7540  -36.8570   22.5840 C.ar    1  LIG   0.5805   0.4100 
22    C12      2.9040  -34.5090   25.6010 C.3     1  LIG  -0.0620   0.1435 
23    H7       2.2235  -33.7630   25.2820 H       1  LIG   0.0570   0.0000 
24    H8       2.4436  -35.1154   26.3371 H       1  LIG   0.0495   0.0000 
25    H9       3.7654  -34.0491   26.0108 H       1  LIG   0.0519   0.0000 
26    O1      -1.2400  -35.9060   23.9770 O.2     1  LIG  -0.6361  -0.5700 
27    C13      2.3440  -38.7570   21.0360 C.3     1  LIG   0.1354   0.0690 
28    H10      3.1238  -38.3754   20.4296 H       1  LIG   0.0981   0.1000 
29    C14      2.9380  -39.8900   21.8010 C.3     1  LIG  -0.1181  -0.2000 
30    H11      3.8890  -40.1268   21.3997 H       1  LIG   0.0732   0.1000 
31    H12      3.0430  -39.6129   22.8177 H       1  LIG   0.0789   0.1000 
32    C15      1.6390  -40.0610   21.0880 C.3     1  LIG  -0.1196  -0.2000 
33    H13      0.6832  -39.9283   21.5242 H       1  LIG   0.0807   0.1000 
34    H14      1.5292  -40.4423   20.1061 H       1  LIG   0.0733   0.1000 
@<TRIPOS>BOND
1     2     1     ar
2     3     2     1
3     4     2     ar
4     5     4     1
5     6     4     ar
6     7     6     ar
7     8     7     1
8     9     8     1
9     10    8     1
10    11    10    1
11    12    11    ar
12    13    12    1
13    14    12    ar
14    15    14    1
15    16    14    ar
16    17    16    1
17    18    16    ar
18    19    11    ar
19    19    18    ar
20    20    19    1
21    21    1     ar
22    21    7     ar
23    21    20    1
24    22    6     1
25    23    22    1
26    24    22    1
27    25    22    1
28    26    10    2
29    27    20    1
30    28    27    1
31    29    27    1
32    30    29    1
33    31    29    1
34    32    27    1
35    32    29    1
36    33    32    1
37    34    32    1
@<TRIPOS>SUBSTRUCTURE
1   LIG    1    
 
########## Name        : 1VRT.lig
########## Description : AM1BCC_CHARGES =  -0.0002 ORIGINAL_CHARGES =  -0.0000

@<TRIPOS>MOLECULE
1VRT.lig
34    37    1     0     0    
SMALL
USER_CHARGES
@<TRIPOS>ATOM
1     N1       4.0540  -36.9310   22.2210 N.ar    1  LIG  -0.6650  -0.6200 
2     C1       4.9660  -36.2380   22.9390 C.ar    1  LIG   0.3947   0.1600 
3     H1       6.0082  -36.2811   22.6707 H       1  LIG   0.0281   0.1500 
4     C2       4.6240  -35.4500   24.0360 C.ar    1  LIG  -0.2334  -0.1500 
5     H2       5.3884  -34.9151   24.5740 H       1  LIG   0.1480   0.1500 
6     C3       3.3050  -35.3690   24.4150 C.ar    1  LIG  -0.0698  -0.1435 
7     C4       2.3460  -36.0770   23.6860 C.ar    1  LIG  -0.0398   0.1170 
8     N2       0.9890  -36.0280   24.1030 N.am    1  LIG  -0.4596  -0.5470 
9     H3       0.7643  -35.9928   25.0860 H       1  LIG   0.3311   0.3700 
10    C5      -0.1450  -36.0180   23.4080 C.2     1  LIG   0.7361   0.5438 
11    C6      -0.1190  -36.0770   21.8860 C.ar    1  LIG  -0.2550   0.0862 
12    C7      -1.1230  -35.3990   21.1890 C.ar    1  LIG  -0.0321  -0.1500 
13    H4      -1.7552  -34.6955   21.7041 H       1  LIG   0.1623   0.1500 
14    C8      -1.2960  -35.6300   19.8690 C.ar    1  LIG  -0.2723  -0.1500 
15    H5      -2.0662  -35.1073   19.3273 H       1  LIG   0.1522   0.1500 
16    C9      -0.4670  -36.5450   19.2400 C.ar    1  LIG   0.4373   0.1600 
17    H6      -0.5947  -36.7554   18.1915 H       1  LIG   0.0280   0.1500 
18    N3       0.5220  -37.2120   19.8740 N.ar    1  LIG  -0.6893  -0.6200 
19    C10      0.7040  -36.9790   21.1800 C.ar    1  LIG   0.6480   0.4100 
20    N4       1.7670  -37.6730   21.8260 N.pl3   1  LIG  -0.6924  -0.3690 
21    C11      2.7540  -36.8570   22.5840 C.ar    1  LIG   0.5805   0.4100 
22    C12      2.9040  -34.5090   25.6010 C.3     1  LIG  -0.0620   0.1435 
23    H7       2.2235  -33.7630   25.2820 H       1  LIG   0.0570   0.0000 
24    H8       2.4436  -35.1154   26.3371 H       1  LIG   0.0495   0.0000 
25    H9       3.7654  -34.0491   26.0108 H       1  LIG   0.0519   0.0000 
26    O1      -1.2400  -35.9060   23.9770 O.2     1  LIG  -0.6361  -0.5700 
27    C13      2.3440  -38.7570   21.0360 C.3     1  LIG   0.1354   0.0690 
28    H10      3.1238  -38.3754   20.4296 H       1  LIG   0.0981   0.1000 
29    C14      2.9380  -39.8900   21.8010 C.3     1  LIG  -0.1181  -0.2000 
30    H11      3.8890  -40.1268   21.3997 H       1  LIG   0.0732   0.1000 
31    H12      3.0430  -39.6129   22.8177 H       1  LIG   0.0789   0.1000 
32    C15      1.6390  -40.0610   21.0880 C.3     1  LIG  -0.1196  -0.2000 
33    H13      0.6832  -39.9283   21.5242 H       1  LIG   0.0807   0.1000 
34    H14      1.5292  -40.4423   20.1061 H       1  LIG   0.0733   0.1000 
@<TRIPOS>BOND
1     2     1     ar
2     3     2     1
3     4     2     ar
4     5     4     1
5     6     4     ar
6     7     6     ar
7     8     7     1
8     9     8     1
9     10    8     1
10    11    10    1
11    12    11    ar
12    13    12    1
13    14    12    ar
14    15    14    1
15    16    14    ar
16    17    16    1
17    18    16    ar
18    19    11    ar
19    19    18    ar
20    20    19    1
21    21    1     ar
22    21    7     ar
23    21    20    1
24    22    6     1
25    23    22    1
26    24    22    1
27    25    22    1
28    26    10    2
29    27    20    1
30    28    27    1
31    29    27    1
32    30    29    1
33    31    29    1
34    32    27    1
35    32    29    1
36    33    32    1
37    34    32    1
@<TRIPOS>SUBSTRUCTURE
1   LIG    1    
 
########## Name        : 1VRT.lig
########## Description : AM1BCC_CHARGES =  -0.0002 ORIGINAL_CHARGES =  -0.0000

@<TRIPOS>MOLECULE
1VRT.lig
34    37    1     0     0    
SMALL
USER_CHARGES
@<TRIPOS>ATOM
1     N1       4.0540  -36.9310   22.2210 N.ar    1  LIG  -0.6650  -0.6200 
2     C1       4.9660  -36.2380   22.9390 C.ar    1  LIG   0.3947   0.1600 
3     H1       6.0082  -36.2811   22.6707 H       1  LIG   0.0281   0.1500 
4     C2       4.6240  -35.4500   24.0360 C.ar    1  LIG  -0.2334  -0.1500 
5     H2       5.3884  -34.9151   24.5740 H       1  LIG   0.1480   0.1500 
6     C3       3.3050  -35.3690   24.4150 C.ar    1  LIG  -0.0698  -0.1435 
7     C4       2.3460  -36.0770   23.6860 C.ar    1  LIG  -0.0398   0.1170 
8     N2       0.9890  -36.0280   24.1030 N.am    1  LIG  -0.4596  -0.5470 
9     H3       0.7643  -35.9928   25.0860 H       1  LIG   0.3311   0.3700 
10    C5      -0.1450  -36.0180   23.4080 C.2     1  LIG   0.7361   0.5438 
11    C6      -0.1190  -36.0770   21.8860 C.ar    1  LIG  -0.2550   0.0862 
12    C7      -1.1230  -35.3990   21.1890 C.ar    1  LIG  -0.0321  -0.1500 
13    H4      -1.7552  -34.6955   21.7041 H       1  LIG   0.1623   0.1500 
14    C8      -1.2960  -35.6300   19.8690 C.ar    1  LIG  -0.2723  -0.1500 
15    H5      -2.0662  -35.1073   19.3273 H       1  LIG   0.1522   0.1500 
16    C9      -0.4670  -36.5450   19.2400 C.ar    1  LIG   0.4373   0.1600 
17    H6      -0.5947  -36.7554   18.1915 H       1  LIG   0.0280   0.1500 
18    N3       0.5220  -37.2120   19.8740 N.ar    1  LIG  -0.6893  -0.6200 
19    C10      0.7040  -36.9790   21.1800 C.ar    1  LIG   0.6480   0.4100 
20    N4       1.7670  -37.6730   21.8260 N.pl3   1  LIG  -0.6924  -0.3690 
21    C11      2.7540  -36.8570   22.5840 C.ar    1  LIG   0.5805   0.4100 
22    C12      2.9040  -34.5090   25.6010 C.3     1  LIG  -0.0620   0.1435 
23    H7       2.2235  -33.7630   25.2820 H       1  LIG   0.0570   0.0000 
24    H8       2.4436  -35.1154   26.3371 H       1  LIG   0.0495   0.0000 
25    H9       3.7654  -34.0491   26.0108 H       1  LIG   0.0519   0.0000 
26    O1      -1.2400  -35.9060   23.9770 O.2     1  LIG  -0.6361  -0.5700 
27    C13      2.3440  -38.7570   21.0360 C.3     1  LIG   0.1354   0.0690 
28    H10      3.1238  -38.3754   20.4296 H       1  LIG   0.0981   0.1000 
29    C14      2.9380  -39.8900   21.8010 C.3     1  LIG  -0.1181  -0.2000 
30    H11      3.8890  -40.1268   21.3997 H       1  LIG   0.0732   0.1000 
31    H12      3.0430  -39.6129   22.8177 H       1  LIG   0.0789   0.1000 
32    C15      1.6390  -40.0610   21.0880 C.3     1  LIG  -0.1196  -0.2000 
33    H13      0.6832  -39.9283   21.5242 H       1  LIG   0.0807   0.1000 
34    H14      1.5292  -40.4423   20.1061 H       1  LIG   0.0733   0.1000 
@<TRIPOS>BOND
1     2     1     ar
2     3     2     1
3     4     2     ar
4     5     4     1
5     6     4     ar
6     7     6     ar
7     8     7     1
8     9     8     1
9     10    8     1
10    11    10    1
11    12    11    ar
12    13    12    1
13    14    12    ar
14    15    14    1
15    16    14    ar
16    17    16    1
17    18    16    ar
18    19    11    ar
19    19    18    ar
20    20    19    1
21    21    1     ar
22    21    7     ar
23    21    20    1
24    22    6     1
25    23    22    1
26    24    22    1
27    25    22    1
28    26    10    2
29    27    20    1
30    28    27    1
31    29    27    1
32    30    29    1
33    31    29    1
34    32    27    1
35    32    29    1
36    33    32    1
37    34    32    1
@<TRIPOS>SUBSTRUCTURE
1   LIG    1    
 
########## Name        : 1VRT.lig
########## Description : AM1BCC_CHARGES =  -0.0002 ORIGINAL_CHARGES =  -0.0000

@<TRIPOS>MOLECULE
1VRT.lig
34    37    1     0     0    
SMALL
USER_CHARGES
@<TRIPOS>ATOM
1     N1       4.0540  -36.9310   22.2210 N.ar    1  LIG  -0.6650  -0.6200 
2     C1       4.9660  -36.2380   22.9390 C.ar    1  LIG   0.3947   0.1600 
3     H1       6.0082  -36.2811   22.6707 H       1  LIG   0.0281   0.1500 
4     C2       4.6240  -35.4500   24.0360 C.ar    1  LIG  -0.2334  -0.1500 
5     H2       5.3884  -34.9151   24.5740 H       1  LIG   0.1480   0.1500 
6     C3       3.3050  -35.3690   24.4150 C.ar    1  LIG  -0.0698  -0.1435 
7     C4       2.3460  -36.0770   23.6860 C.ar    1  LIG  -0.0398   0.1170 
8     N2       0.9890  -36.0280   24.1030 N.am    1  LIG  -0.4596  -0.5470 
9     H3       0.7643  -35.9928   25.0860 H       1  LIG   0.3311   0.3700 
10    C5      -0.1450  -36.0180   23.4080 C.2     1  LIG   0.7361   0.5438 
11    C6      -0.1190  -36.0770   21.8860 C.ar    1  LIG  -0.2550   0.0862 
12    C7      -1.1230  -35.3990   21.1890 C.ar    1  LIG  -0.0321  -0.1500 
13    H4      -1.7552  -34.6955   21.7041 H       1  LIG   0.1623   0.1500 
14    C8      -1.2960  -35.6300   19.8690 C.ar    1  LIG  -0.2723  -0.1500 
15    H5      -2.0662  -35.1073   19.3273 H       1  LIG   0.1522   0.1500 
16    C9      -0.4670  -36.5450   19.2400 C.ar    1  LIG   0.4373   0.1600 
17    H6      -0.5947  -36.7554   18.1915 H       1  LIG   0.0280   0.1500 
18    N3       0.5220  -37.2120   19.8740 N.ar    1  LIG  -0.6893  -0.6200 
19    C10      0.7040  -36.9790   21.1800 C.ar    1  LIG   0.6480   0.4100 
20    N4       1.7670  -37.6730   21.8260 N.pl3   1  LIG  -0.6924  -0.3690 
21    C11      2.7540  -36.8570   22.5840 C.ar    1  LIG   0.5805   0.4100 
22    C12      2.9040  -34.5090   25.6010 C.3     1  LIG  -0.0620   0.1435 
23    H7       2.2235  -33.7630   25.2820 H       1  LIG   0.0570   0.0000 
24    H8       2.4436  -35.1154   26.3371 H       1  LIG   0.0495   0.0000 
25    H9       3.7654  -34.0491   26.0108 H       1  LIG   0.0519   0.0000 
26    O1      -1.2400  -35.9060   23.9770 O.2     1  LIG  -0.6361  -0.5700 
27    C13      2.3440  -38.7570   21.0360 C.3     1  LIG   0.1354   0.0690 
28    H10      3.1238  -38.3754   20.4296 H       1  LIG   0.0981   0.1000 
29    C14      2.9380  -39.8900   21.8010 C.3     1  LIG  -0.1181  -0.2000 
30    H11      3.8890  -40.1268   21.3997 H       1  LIG   0.0732   0.1000 
31    H12      3.0430  -39.6129   22.8177 H       1  LIG   0.0789   0.1000 
32    C15      1.6390  -40.0610   21.0880 C.3     1  LIG  -0.1196  -0.2000 
33    H13      0.6832  -39.9283   21.5242 H       1  LIG   0.0807   0.1000 
34    H14      1.5292  -40.4423   20.1061 H       1  LIG   0.0733   0.1000 
@<TRIPOS>BOND
1     2     1     ar
2     3     2     1
3     4     2     ar
4     5     4     1
5     6     4     ar
6     7     6     ar
7     8     7     1
8     9     8     1
9     10    8     1
10    11    10    1
11    12    11    ar
12    13    12    1
13    14    12    ar
14    15    14    1
15    16    14    ar
16    17    16    1
17    18    16    ar
18    19    11    ar
19    19    18    ar
20    20    19    1
21    21    1     ar
22    21    7     ar
23    21    20    1
24    22    6     1
25    23    22    1
26    24    22    1
27    25    22    1
28    26    10    2
29    27    20    1
30    28    27    1
31    29    27    1
32    30    29    1
33    31    29    1
34    32    27    1
35    32    29    1
36    33    32    1
37    34    32    1
@<TRIPOS>SUBSTRUCTURE
1   LIG    1    
 
########## Name        : 1VRT.lig
########## Description : AM1BCC_CHARGES =  -0.0002 ORIGINAL_CHARGES =  -0.0000

@<TRIPOS>MOLECULE
1VRT.lig
34    37    1     0     0    
SMALL
USER_CHARGES
@<TRIPOS>ATOM
1     N1       4.0540  -36.9310   22.2210 N.ar    1  LIG  -0.6650  -0.6200 
2     C1       4.9660  -36.2380   22.9390 C.ar    1  LIG   0.3947   0.1600 
3     H1       6.0082  -36.2811   22.6707 H       1  LIG   0.0281   0.1500 
4     C2       4.6240  -35.4500   24.0360 C.ar    1  LIG  -0.2334  -0.1500 
5     H2       5.3884  -34.9151   24.5740 H       1  LIG   0.1480   0.1500 
6     C3       3.3050  -35.3690   24.4150 C.ar    1  LIG  -0.0698  -0.1435 
7     C4       2.3460  -36.0770   23.6860 C.ar    1  LIG  -0.0398   0.1170 
8     N2       0.9890  -36.0280   24.1030 N.am    1  LIG  -0.4596  -0.5470 
9     H3       0.7643  -35.9928   25.0860 H       1  LIG   0.3311   0.3700 
10    C5      -0.1450  -36.0180   23.4080 C.2     1  LIG   0.7361   0.5438 
11    C6      -0.1190  -36.0770   21.8860 C.ar    1  LIG  -0.2550   0.0862 
12    C7      -1.1230  -35.3990   21.1890 C.ar    1  LIG  -0.0321  -0.1500 
13    H4      -1.7552  -34.6955   21.7041 H       1  LIG   0.1623   0.1500 
14    C8      -1.2960  -35.6300   19.8690 C.ar    1  LIG  -0.2723  -0.1500 
15    H5      -2.0662  -35.1073   19.3273 H       1  LIG   0.1522   0.1500 
16    C9      -0.4670  -36.5450   19.2400 C.ar    1  LIG   0.4373   0.1600 
17    H6      -0.5947  -36.7554   18.1915 H       1  LIG   0.0280   0.1500 
18    N3       0.5220  -37.2120   19.8740 N.ar    1  LIG  -0.6893  -0.6200 
19    C10      0.7040  -36.9790   21.1800 C.ar    1  LIG   0.6480   0.4100 
20    N4       1.7670  -37.6730   21.8260 N.pl3   1  LIG  -0.6924  -0.3690 
21    C11      2.7540  -36.8570   22.5840 C.ar    1  LIG   0.5805   0.4100 
22    C12      2.9040  -34.5090   25.6010 C.3     1  LIG  -0.0620   0.1435 
23    H7       2.2235  -33.7630   25.2820 H       1  LIG   0.0570   0.0000 
24    H8       2.4436  -35.1154   26.3371 H       1  LIG   0.0495   0.0000 
25    H9       3.7654  -34.0491   26.0108 H       1  LIG   0.0519   0.0000 
26    O1      -1.2400  -35.9060   23.9770 O.2     1  LIG  -0.6361  -0.5700 
27    C13      2.3440  -38.7570   21.0360 C.3     1  LIG   0.1354   0.0690 
28    H10      3.1238  -38.3754   20.4296 H       1  LIG   0.0981   0.1000 
29    C14      2.9380  -39.8900   21.8010 C.3     1  LIG  -0.1181  -0.2000 
30    H11      3.8890  -40.1268   21.3997 H       1  LIG   0.0732   0.1000 
31    H12      3.0430  -39.6129   22.8177 H       1  LIG   0.0789   0.1000 
32    C15      1.6390  -40.0610   21.0880 C.3     1  LIG  -0.1196  -0.2000 
33    H13      0.6832  -39.9283   21.5242 H       1  LIG   0.0807   0.1000 
34    H14      1.5292  -40.4423   20.1061 H       1  LIG   0.0733   0.1000 
@<TRIPOS>BOND
1     2     1     ar
2     3     2     1
3     4     2     ar
4     5     4     1
5     6     4     ar
6     7     6     ar
7     8     7     1
8     9     8     1
9     10    8     1
10    11    10    1
11    12    11    ar
12    13    12    1
13    14    12    ar
14    15    14    1
15    16    14    ar
16    17    16    1
17    18    16    ar
18    19    11    ar
19    19    18    ar
20    20    19    1
21    21    1     ar
22    21    7     ar
23    21    20    1
24    22    6     1
25    23    22    1
26    24    22    1
27    25    22    1
28    26    10    2
29    27    20    1
30    28    27    1
31    29    27    1
32    30    29    1
33    31    29    1
34    32    27    1
35    32    29    1
36    33    32    1
37    34    32    1
@<TRIPOS>SUBSTRUCTURE
1   LIG    1    
 
########## Name        : 1VRT.lig
########## Description : AM1BCC_CHARGES =  -0.0002 ORIGINAL_CHARGES =  -0.0000

@<TRIPOS>MOLECULE
1VRT.lig
34    37    1     0     0    
SMALL
USER_CHARGES
@<TRIPOS>ATOM
1     N1       4.0540  -36.9310   22.2210 N.ar    1  LIG  -0.6650  -0.6200 
2     C1       4.9660  -36.2380   22.9390 C.ar    1  LIG   0.3947   0.1600 
3     H1       6.0082  -36.2811   22.6707 H       1  LIG   0.0281   0.1500 
4     C2       4.6240  -35.4500   24.0360 C.ar    1  LIG  -0.2334  -0.1500 
5     H2       5.3884  -34.9151   24.5740 H       1  LIG   0.1480   0.1500 
6     C3       3.3050  -35.3690   24.4150 C.ar    1  LIG  -0.0698  -0.1435 
7     C4       2.3460  -36.0770   23.6860 C.ar    1  LIG  -0.0398   0.1170 
8     N2       0.9890  -36.0280   24.1030 N.am    1  LIG  -0.4596  -0.5470 
9     H3       0.7643  -35.9928   25.0860 H       1  LIG   0.3311   0.3700 
10    C5      -0.1450  -36.0180   23.4080 C.2     1  LIG   0.7361   0.5438 
11    C6      -0.1190  -36.0770   21.8860 C.ar    1  LIG  -0.2550   0.0862 
12    C7      -1.1230  -35.3990   21.1890 C.ar    1  LIG  -0.0321  -0.1500 
13    H4      -1.7552  -34.6955   21.7041 H       1  LIG   0.1623   0.1500 
14    C8      -1.2960  -35.6300   19.8690 C.ar    1  LIG  -0.2723  -0.1500 
15    H5      -2.0662  -35.1073   19.3273 H       1  LIG   0.1522   0.1500 
16    C9      -0.4670  -36.5450   19.2400 C.ar    1  LIG   0.4373   0.1600 
17    H6      -0.5947  -36.7554   18.1915 H       1  LIG   0.0280   0.1500 
18    N3       0.5220  -37.2120   19.8740 N.ar    1  LIG  -0.6893  -0.6200 
19    C10      0.7040  -36.9790   21.1800 C.ar    1  LIG   0.6480   0.4100 
20    N4       1.7670  -37.6730   21.8260 N.pl3   1  LIG  -0.6924  -0.3690 
21    C11      2.7540  -36.8570   22.5840 C.ar    1  LIG   0.5805   0.4100 
22    C12      2.9040  -34.5090   25.6010 C.3     1  LIG  -0.0620   0.1435 
23    H7       2.2235  -33.7630   25.2820 H       1  LIG   0.0570   0.0000 
24    H8       2.4436  -35.1154   26.3371 H       1  LIG   0.0495   0.0000 
25    H9       3.7654  -34.0491   26.0108 H       1  LIG   0.0519   0.0000 
26    O1      -1.2400  -35.9060   23.9770 O.2     1  LIG  -0.6361  -0.5700 
27    C13      2.3440  -38.7570   21.0360 C.3     1  LIG   0.1354   0.0690 
28    H10      3.1238  -38.3754   20.4296 H       1  LIG   0.0981   0.1000 
29    C14      2.9380  -39.8900   21.8010 C.3     1  LIG  -0.1181  -0.2000 
30    H11      3.8890  -40.1268   21.3997 H       1  LIG   0.0732   0.1000 
31    H12      3.0430  -39.6129   22.8177 H       1  LIG   0.0789   0.1000 
32    C15      1.6390  -40.0610   21.0880 C.3     1  LIG  -0.1196  -0.2000 
33    H13      0.6832  -39.9283   21.5242 H       1  LIG   0.0807   0.1000 
34    H14      1.5292  -40.4423   20.1061 H       1  LIG   0.0733   0.1000 
@<TRIPOS>BOND
1     2     1     ar
2     3     2     1
3     4     2     ar
4     5     4     1
5     6     4     ar
6     7     6     ar
7     8     7     1
8     9     8     1
9     10    8     1
10    11    10    1
11    12    11    ar
12    13    12    1
13    14    12    ar
14    15    14    1
15    16    14    ar
16    17    16    1
17    18    16    ar
18    19    11    ar
19    19    18    ar
20    20    19    1
21    21    1     ar
22    21    7     ar
23    21    20    1
24    22    6     1
25    23    22    1
26    24    22    1
27    25    22    1
28    26    10    2
29    27    20    1
30    28    27    1
31    29    27    1
32    30    29    1
33    31    29    1
34    32    27    1
35    32    29    1
36    33    32    1
37    34    32    1
@<TRIPOS>SUBSTRUCTURE
1   LIG    1    
 
########## Name        : 1VRT.lig
########## Description : AM1BCC_CHARGES =  -0.0002 ORIGINAL_CHARGES =  -0.0000

@<TRIPOS>MOLECULE
1VRT.lig
34    37    1     0     0    
SMALL
USER_CHARGES
@<TRIPOS>ATOM
1     N1       4.0540  -36.9310   22.2210 N.ar    1  LIG  -0.6650  -0.6200 
2     C1       4.9660  -36.2380   22.9390 C.ar    1  LIG   0.3947   0.1600 
3     H1       6.0082  -36.2811   22.6707 H       1  LIG   0.0281   0.1500 
4     C2       4.6240  -35.4500   24.0360 C.ar    1  LIG  -0.2334  -0.1500 
5     H2       5.3884  -34.9151   24.5740 H       1  LIG   0.1480   0.1500 
6     C3       3.3050  -35.3690   24.4150 C.ar    1  LIG  -0.0698  -0.1435 
7     C4       2.3460  -36.0770   23.6860 C.ar    1  LIG  -0.0398   0.1170 
8     N2       0.9890  -36.0280   24.1030 N.am    1  LIG  -0.4596  -0.5470 
9     H3       0.7643  -35.9928   25.0860 H       1  LIG   0.3311   0.3700 
10    C5      -0.1450  -36.0180   23.4080 C.2     1  LIG   0.7361   0.5438 
11    C6      -0.1190  -36.0770   21.8860 C.ar    1  LIG  -0.2550   0.0862 
12    C7      -1.1230  -35.3990   21.1890 C.ar    1  LIG  -0.0321  -0.1500 
13    H4      -1.7552  -34.6955   21.7041 H       1  LIG   0.1623   0.1500 
14    C8      -1.2960  -35.6300   19.8690 C.ar    1  LIG  -0.2723  -0.1500 
15    H5      -2.0662  -35.1073   19.3273 H       1  LIG   0.1522   0.1500 
16    C9      -0.4670  -36.5450   19.2400 C.ar    1  LIG   0.4373   0.1600 
17    H6      -0.5947  -36.7554   18.1915 H       1  LIG   0.0280   0.1500 
18    N3       0.5220  -37.2120   19.8740 N.ar    1  LIG  -0.6893  -0.6200 
19    C10      0.7040  -36.9790   21.1800 C.ar    1  LIG   0.6480   0.4100 
20    N4       1.7670  -37.6730   21.8260 N.pl3   1  LIG  -0.6924  -0.3690 
21    C11      2.7540  -36.8570   22.5840 C.ar    1  LIG   0.5805   0.4100 
22    C12      2.9040  -34.5090   25.6010 C.3     1  LIG  -0.0620   0.1435 
23    H7       2.2235  -33.7630   25.2820 H       1  LIG   0.0570   0.0000 
24    H8       2.4436  -35.1154   26.3371 H       1  LIG   0.0495   0.0000 
25    H9       3.7654  -34.0491   26.0108 H       1  LIG   0.0519   0.0000 
26    O1      -1.2400  -35.9060   23.9770 O.2     1  LIG  -0.6361  -0.5700 
27    C13      2.3440  -38.7570   21.0360 C.3     1  LIG   0.1354   0.0690 
28    H10      3.1238  -38.3754   20.4296 H       1  LIG   0.0981   0.1000 
29    C14      2.9380  -39.8900   21.8010 C.3     1  LIG  -0.1181  -0.2000 
30    H11      3.8890  -40.1268   21.3997 H       1  LIG   0.0732   0.1000 
31    H12      3.0430  -39.6129   22.8177 H       1  LIG   0.0789   0.1000 
32    C15      1.6390  -40.0610   21.0880 C.3     1  LIG  -0.1196  -0.2000 
33    H13      0.6832  -39.9283   21.5242 H       1  LIG   0.0807   0.1000 
34    H14      1.5292  -40.4423   20.1061 H       1  LIG   0.0733   0.1000 
@<TRIPOS>BOND
1     2     1     ar
2     3     2     1
3     4     2     ar
4     5     4     1
5     6     4     ar
6     7     6     ar
7     8     7     1
8     9     8     1
9     10    8     1
10    11    10    1
11    12    11    ar
12    13    12    1
13    14    12    ar
14    15    14    1
15    16    14    ar
16    17    16    1
17    18    16    ar
18    19    11    ar
19    19    18    ar
20    20    19    1
21    21    1     ar
22    21    7     ar
23    21    20    1
24    22    6     1
25    23    22    1
26    24    22    1
27    25    22    1
28    26    10    2
29    27    20    1
30    28    27    1
31    29    27    1
32    30    29    1
33    31    29    1
34    32    27    1
35    32    29    1
36    33    32    1
37    34    32    1
@<TRIPOS>SUBSTRUCTURE
1   LIG    1    
 
########## Name        : 1VRT.lig
########## Description : AM1BCC_CHARGES =  -0.0002 ORIGINAL_CHARGES =  -0.0000

@<TRIPOS>MOLECULE
1VRT.lig
34    37    1     0     0    
SMALL
USER_CHARGES
@<TRIPOS>ATOM
1     N1       4.0540  -36.9310   22.2210 N.ar    1  LIG  -0.6650  -0.6200 
2     C1       4.9660  -36.2380   22.9390 C.ar    1  LIG   0.3947   0.1600 
3     H1       6.0082  -36.2811   22.6707 H       1  LIG   0.0281   0.1500 
4     C2       4.6240  -35.4500   24.0360 C.ar    1  LIG  -0.2334  -0.1500 
5     H2       5.3884  -34.9151   24.5740 H       1  LIG   0.1480   0.1500 
6     C3       3.3050  -35.3690   24.4150 C.ar    1  LIG  -0.0698  -0.1435 
7     C4       2.3460  -36.0770   23.6860 C.ar    1  LIG  -0.0398   0.1170 
8     N2       0.9890  -36.0280   24.1030 N.am    1  LIG  -0.4596  -0.5470 
9     H3       0.7643  -35.9928   25.0860 H       1  LIG   0.3311   0.3700 
10    C5      -0.1450  -36.0180   23.4080 C.2     1  LIG   0.7361   0.5438 
11    C6      -0.1190  -36.0770   21.8860 C.ar    1  LIG  -0.2550   0.0862 
12    C7      -1.1230  -35.3990   21.1890 C.ar    1  LIG  -0.0321  -0.1500 
13    H4      -1.7552  -34.6955   21.7041 H       1  LIG   0.1623   0.1500 
14    C8      -1.2960  -35.6300   19.8690 C.ar    1  LIG  -0.2723  -0.1500 
15    H5      -2.0662  -35.1073   19.3273 H       1  LIG   0.1522   0.1500 
16    C9      -0.4670  -36.5450   19.2400 C.ar    1  LIG   0.4373   0.1600 
17    H6      -0.5947  -36.7554   18.1915 H       1  LIG   0.0280   0.1500 
18    N3       0.5220  -37.2120   19.8740 N.ar    1  LIG  -0.6893  -0.6200 
19    C10      0.7040  -36.9790   21.1800 C.ar    1  LIG   0.6480   0.4100 
20    N4       1.7670  -37.6730   21.8260 N.pl3   1  LIG  -0.6924  -0.3690 
21    C11      2.7540  -36.8570   22.5840 C.ar    1  LIG   0.5805   0.4100 
22    C12      2.9040  -34.5090   25.6010 C.3     1  LIG  -0.0620   0.1435 
23    H7       2.2235  -33.7630   25.2820 H       1  LIG   0.0570   0.0000 
24    H8       2.4436  -35.1154   26.3371 H       1  LIG   0.0495   0.0000 
25    H9       3.7654  -34.0491   26.0108 H       1  LIG   0.0519   0.0000 
26    O1      -1.2400  -35.9060   23.9770 O.2     1  LIG  -0.6361  -0.5700 
27    C13      2.3440  -38.7570   21.0360 C.3     1  LIG   0.1354   0.0690 
28    H10      3.1238  -38.3754   20.4296 H       1  LIG   0.0981   0.1000 
29    C14      2.9380  -39.8900   21.8010 C.3     1  LIG  -0.1181  -0.2000 
30    H11      3.8890  -40.1268   21.3997 H       1  LIG   0.0732   0.1000 
31    H12      3.0430  -39.6129   22.8177 H       1  LIG   0.0789   0.1000 
32    C15      1.6390  -40.0610   21.0880 C.3     1  LIG  -0.1196  -0.2000 
33    H13      0.6832  -39.9283   21.5242 H       1  LIG   0.0807   0.1000 
34    H14      1.5292  -40.4423   20.1061 H       1  LIG   0.0733   0.1000 
@<TRIPOS>BOND
1     2     1     ar
2     3     2     1
3     4     2     ar
4     5     4     1
5     6     4     ar
6     7     6     ar
7     8     7     1
8     9     8     1
9     10    8     1
10    11    10    1
11    12    11    ar
12    13    12    1
13    14    12    ar
14    15    14    1
15    16    14    ar
16    17    16    1
17    18    16    ar
18    19    11    ar
19    19    18    ar
20    20    19    1
21    21    1     ar
22    21    7     ar
23    21    20    1
24    22    6     1
25    23    22    1
26    24    22    1
27    25    22    1
28    26    10    2
29    27    20    1
30    28    27    1
31    29    27    1
32    30    29    1
33    31    29    1
34    32    27    1
35    32    29    1
36    33    32    1
37    34    32    1
@<TRIPOS>SUBSTRUCTURE
1   LIG    1    
 
########## Name        : 1VRT.lig
########## Description : AM1BCC_CHARGES =  -0.0002 ORIGINAL_CHARGES =  -0.0000

@<TRIPOS>MOLECULE
1VRT.lig
34    37    1     0     0    
SMALL
USER_CHARGES
@<TRIPOS>ATOM
1     N1       4.0540  -36.9310   22.2210 N.ar    1  LIG  -0.6650  -0.6200 
2     C1       4.9660  -36.2380   22.9390 C.ar    1  LIG   0.3947   0.1600 
3     H1       6.0082  -36.2811   22.6707 H       1  LIG   0.0281   0.1500 
4     C2       4.6240  -35.4500   24.0360 C.ar    1  LIG  -0.2334  -0.1500 
5     H2       5.3884  -34.9151   24.5740 H       1  LIG   0.1480   0.1500 
6     C3       3.3050  -35.3690   24.4150 C.ar    1  LIG  -0.0698  -0.1435 
7     C4       2.3460  -36.0770   23.6860 C.ar    1  LIG  -0.0398   0.1170 
8     N2       0.9890  -36.0280   24.1030 N.am    1  LIG  -0.4596  -0.5470 
9     H3       0.7643  -35.9928   25.0860 H       1  LIG   0.3311   0.3700 
10    C5      -0.1450  -36.0180   23.4080 C.2     1  LIG   0.7361   0.5438 
11    C6      -0.1190  -36.0770   21.8860 C.ar    1  LIG  -0.2550   0.0862 
12    C7      -1.1230  -35.3990   21.1890 C.ar    1  LIG  -0.0321  -0.1500 
13    H4      -1.7552  -34.6955   21.7041 H       1  LIG   0.1623   0.1500 
14    C8      -1.2960  -35.6300   19.8690 C.ar    1  LIG  -0.2723  -0.1500 
15    H5      -2.0662  -35.1073   19.3273 H       1  LIG   0.1522   0.1500 
16    C9      -0.4670  -36.5450   19.2400 C.ar    1  LIG   0.4373   0.1600 
17    H6      -0.5947  -36.7554   18.1915 H       1  LIG   0.0280   0.1500 
18    N3       0.5220  -37.2120   19.8740 N.ar    1  LIG  -0.6893  -0.6200 
19    C10      0.7040  -36.9790   21.1800 C.ar    1  LIG   0.6480   0.4100 
20    N4       1.7670  -37.6730   21.8260 N.pl3   1  LIG  -0.6924  -0.3690 
21    C11      2.7540  -36.8570   22.5840 C.ar    1  LIG   0.5805   0.4100 
22    C12      2.9040  -34.5090   25.6010 C.3     1  LIG  -0.0620   0.1435 
23    H7       2.2235  -33.7630   25.2820 H       1  LIG   0.0570   0.0000 
24    H8       2.4436  -35.1154   26.3371 H       1  LIG   0.0495   0.0000 
25    H9       3.7654  -34.0491   26.0108 H       1  LIG   0.0519   0.0000 
26    O1      -1.2400  -35.9060   23.9770 O.2     1  LIG  -0.6361  -0.5700 
27    C13      2.3440  -38.7570   21.0360 C.3     1  LIG   0.1354   0.0690 
28    H10      3.1238  -38.3754   20.4296 H       1  LIG   0.0981   0.1000 
29    C14      2.9380  -39.8900   21.8010 C.3     1  LIG  -0.1181  -0.2000 
30    H11      3.8890  -40.1268   21.3997 H       1  LIG   0.0732   0.1000 
31    H12      3.0430  -39.6129   22.8177 H       1  LIG   0.0789   0.1000 
32    C15      1.6390  -40.0610   21.0880 C.3     1  LIG  -0.1196  -0.2000 
33    H13      0.6832  -39.9283   21.5242 H       1  LIG   0.0807   0.1000 
34    H14      1.5292  -40.4423   20.1061 H       1  LIG   0.0733   0.1000 
@<TRIPOS>BOND
1     2     1     ar
2     3     2     1
3     4     2     ar
4     5     4     1
5     6     4     ar
6     7     6     ar
7     8     7     1
8     9     8     1
9     10    8     1
10    11    10    1
11    12    11    ar
12    13    12    1
13    14    12    ar
14    15    14    1
15    16    14    ar
16    17    16    1
17    18    16    ar
18    19    11    ar
19    19    18    ar
20    20    19    1
21    21    1     ar
22    21    7     ar
23    21    20    1
24    22    6     1
25    23    22    1
26    24    22    1
27    25    22    1
28    26    10    2
29    27    20    1
30    28    27    1
31    29    27    1
32    30    29    1
33    31    29    1
34    32    27    1
35    32    29    1
36    33    32    1
37    34    32    1
@<TRIPOS>SUBSTRUCTURE
1   LIG    1    
 
########## Name        : 1VRT.lig
########## Description : AM1BCC_CHARGES =  -0.0002 ORIGINAL_CHARGES =  -0.0000

@<TRIPOS>MOLECULE
1VRT.lig
34    37    1     0     0    
SMALL
USER_CHARGES
@<TRIPOS>ATOM
1     N1       4.0540  -36.9310   22.2210 N.ar    1  LIG  -0.6650  -0.6200 
2     C1       4.9660  -36.2380   22.9390 C.ar    1  LIG   0.3947   0.1600 
3     H1       6.0082  -36.2811   22.6707 H       1  LIG   0.0281   0.1500 
4     C2       4.6240  -35.4500   24.0360 C.ar    1  LIG  -0.2334  -0.1500 
5     H2       5.3884  -34.9151   24.5740 H       1  LIG   0.1480   0.1500 
6     C3       3.3050  -35.3690   24.4150 C.ar    1  LIG  -0.0698  -0.1435 
7     C4       2.3460  -36.0770   23.6860 C.ar    1  LIG  -0.0398   0.1170 
8     N2       0.9890  -36.0280   24.1030 N.am    1  LIG  -0.4596  -0.5470 
9     H3       0.7643  -35.9928   25.0860 H       1  LIG   0.3311   0.3700 
10    C5      -0.1450  -36.0180   23.4080 C.2     1  LIG   0.7361   0.5438 
11    C6      -0.1190  -36.0770   21.8860 C.ar    1  LIG  -0.2550   0.0862 
12    C7      -1.1230  -35.3990   21.1890 C.ar    1  LIG  -0.0321  -0.1500 
13    H4      -1.7552  -34.6955   21.7041 H       1  LIG   0.1623   0.1500 
14    C8      -1.2960  -35.6300   19.8690 C.ar    1  LIG  -0.2723  -0.1500 
15    H5      -2.0662  -35.1073   19.3273 H       1  LIG   0.1522   0.1500 
16    C9      -0.4670  -36.5450   19.2400 C.ar    1  LIG   0.4373   0.1600 
17    H6      -0.5947  -36.7554   18.1915 H       1  LIG   0.0280   0.1500 
18    N3       0.5220  -37.2120   19.8740 N.ar    1  LIG  -0.6893  -0.6200 
19    C10      0.7040  -36.9790   21.1800 C.ar    1  LIG   0.6480   0.4100 
20    N4       1.7670  -37.6730   21.8260 N.pl3   1  LIG  -0.6924  -0.3690 
21    C11      2.7540  -36.8570   22.5840 C.ar    1  LIG   0.5805   0.4100 
22    C12      2.9040  -34.5090   25.6010 C.3     1  LIG  -0.0620   0.1435 
23    H7       2.2235  -33.7630   25.2820 H       1  LIG   0.0570   0.0000 
24    H8       2.4436  -35.1154   26.3371 H       1  LIG   0.0495   0.0000 
25    H9       3.7654  -34.0491   26.0108 H       1  LIG   0.0519   0.0000 
26    O1      -1.2400  -35.9060   23.9770 O.2     1  LIG  -0.6361  -0.5700 
27    C13      2.3440  -38.7570   21.0360 C.3     1  LIG   0.1354   0.0690 
28    H10      3.1238  -38.3754   20.4296 H       1  LIG   0.0981   0.1000 
29    C14      2.9380  -39.8900   21.8010 C.3     1  LIG  -0.1181  -0.2000 
30    H11      3.8890  -40.1268   21.3997 H       1  LIG   0.0732   0.1000 
31    H12      3.0430  -39.6129   22.8177 H       1  LIG   0.0789   0.1000 
32    C15      1.6390  -40.0610   21.0880 C.3     1  LIG  -0.1196  -0.2000 
33    H13      0.6832  -39.9283   21.5242 H       1  LIG   0.0807   0.1000 
34    H14      1.5292  -40.4423   20.1061 H       1  LIG   0.0733   0.1000 
@<TRIPOS>BOND
1     2     1     ar
2     3     2     1
3     4     2     ar
4     5     4     1
5     6     4     ar
6     7     6     ar
7     8     7     1
8     9     8     1
9     10    8     1
10    11    10    1
11    12    11    ar
12    13    12    1
13    14    12    ar
14    15    14    1
15    16    14    ar
16    17    16    1
17    18    16    ar
18    19    11    ar
19    19    18    ar
20    20    19    1
21    21    1     ar
22    21    7     ar
23    21    20    1
24    22    6     1
25    23    22    1
26    24    22    1
27    25    22    1
28    26    10    2
29    27    20    1
30    28    27    1
31    29    27    1
32    30    29    1
33    31    29    1
34    32    27    1
35    32    29    1
36    33    32    1
37    34    32    1
@<TRIPOS>SUBSTRUCTURE
1   LIG    1    
 
########## Name        : 1VRT.lig
########## Description : AM1BCC_CHARGES =  -0.0002 ORIGINAL_CHARGES =  -0.0000

@<TRIPOS>MOLECULE
1VRT.lig
34    37    1     0     0    
SMALL
USER_CHARGES
@<TRIPOS>ATOM
1     N1       4.0540  -36.9310   22.2210 N.ar    1  LIG  -0.6650  -0.6200 
2     C1       4.9660  -36.2380   22.9390 C.ar    1  LIG   0.3947   0.1600 
3     H1       6.0082  -36.2811   22.6707 H       1  LIG   0.0281   0.1500 
4     C2       4.6240  -35.4500   24.0360 C.ar    1  LIG  -0.2334  -0.1500 
5     H2       5.3884  -34.9151   24.5740 H       1  LIG   0.1480   0.1500 
6     C3       3.3050  -35.3690   24.4150 C.ar    1  LIG  -0.0698  -0.1435 
7     C4       2.3460  -36.0770   23.6860 C.ar    1  LIG  -0.0398   0.1170 
8     N2       0.9890  -36.0280   24.1030 N.am    1  LIG  -0.4596  -0.5470 
9     H3       0.7643  -35.9928   25.0860 H       1  LIG   0.3311   0.3700 
10    C5      -0.1450  -36.0180   23.4080 C.2     1  LIG   0.7361   0.5438 
11    C6      -0.1190  -36.0770   21.8860 C.ar    1  LIG  -0.2550   0.0862 
12    C7      -1.1230  -35.3990   21.1890 C.ar    1  LIG  -0.0321  -0.1500 
13    H4      -1.7552  -34.6955   21.7041 H       1  LIG   0.1623   0.1500 
14    C8      -1.2960  -35.6300   19.8690 C.ar    1  LIG  -0.2723  -0.1500 
15    H5      -2.0662  -35.1073   19.3273 H       1  LIG   0.1522   0.1500 
16    C9      -0.4670  -36.5450   19.2400 C.ar    1  LIG   0.4373   0.1600 
17    H6      -0.5947  -36.7554   18.1915 H       1  LIG   0.0280   0.1500 
18    N3       0.5220  -37.2120   19.8740 N.ar    1  LIG  -0.6893  -0.6200 
19    C10      0.7040  -36.9790   21.1800 C.ar    1  LIG   0.6480   0.4100 
20    N4       1.7670  -37.6730   21.8260 N.pl3   1  LIG  -0.6924  -0.3690 
21    C11      2.7540  -36.8570   22.5840 C.ar    1  LIG   0.5805   0.4100 
22    C12      2.9040  -34.5090   25.6010 C.3     1  LIG  -0.0620   0.1435 
23    H7       2.2235  -33.7630   25.2820 H       1  LIG   0.0570   0.0000 
24    H8       2.4436  -35.1154   26.3371 H       1  LIG   0.0495   0.0000 
25    H9       3.7654  -34.0491   26.0108 H       1  LIG   0.0519   0.0000 
26    O1      -1.2400  -35.9060   23.9770 O.2     1  LIG  -0.6361  -0.5700 
27    C13      2.3440  -38.7570   21.0360 C.3     1  LIG   0.1354   0.0690 
28    H10      3.1238  -38.3754   20.4296 H       1  LIG   0.0981   0.1000 
29    C14      2.9380  -39.8900   21.8010 C.3     1  LIG  -0.1181  -0.2000 
30    H11      3.8890  -40.1268   21.3997 H       1  LIG   0.0732   0.1000 
31    H12      3.0430  -39.6129   22.8177 H       1  LIG   0.0789   0.1000 
32    C15      1.6390  -40.0610   21.0880 C.3     1  LIG  -0.1196  -0.2000 
33    H13      0.6832  -39.9283   21.5242 H       1  LIG   0.0807   0.1000 
34    H14      1.5292  -40.4423   20.1061 H       1  LIG   0.0733   0.1000 
@<TRIPOS>BOND
1     2     1     ar
2     3     2     1
3     4     2     ar
4     5     4     1
5     6     4     ar
6     7     6     ar
7     8     7     1
8     9     8     1
9     10    8     1
10    11    10    1
11    12    11    ar
12    13    12    1
13    14    12    ar
14    15    14    1
15    16    14    ar
16    17    16    1
17    18    16    ar
18    19    11    ar
19    19    18    ar
20    20    19    1
21    21    1     ar
22    21    7     ar
23    21    20    1
24    22    6     1
25    23    22    1
26    24    22    1
27    25    22    1
28    26    10    2
29    27    20    1
30    28    27    1
31    29    27    1
32    30    29    1
33    31    29    1
34    32    27    1
35    32    29    1
36    33    32    1
37    34    32    1
@<TRIPOS>SUBSTRUCTURE
1   LIG    1    
 
########## Name        : 1VRT.lig
########## Description : AM1BCC_CHARGES =  -0.0002 ORIGINAL_CHARGES =  -0.0000

@<TRIPOS>MOLECULE
1VRT.lig
34    37    1     0     0    
SMALL
USER_CHARGES
@<TRIPOS>ATOM
1     N1       4.0540  -36.9310   22.2210 N.ar    1  LIG  -0.6650  -0.6200 
2     C1       4.9660  -36.2380   22.9390 C.ar    1  LIG   0.3947   0.1600 
3     H1       6.0082  -36.2811   22.6707 H       1  LIG   0.0281   0.1500 
4     C2       4.6240  -35.4500   24.0360 C.ar    1  LIG  -0.2334  -0.1500 
5     H2       5.3884  -34.9151   24.5740 H       1  LIG   0.1480   0.1500 
6     C3       3.3050  -35.3690   24.4150 C.ar    1  LIG  -0.0698  -0.1435 
7     C4       2.3460  -36.0770   23.6860 C.ar    1  LIG  -0.0398   0.1170 
8     N2       0.9890  -36.0280   24.1030 N.am    1  LIG  -0.4596  -0.5470 
9     H3       0.7643  -35.9928   25.0860 H       1  LIG   0.3311   0.3700 
10    C5      -0.1450  -36.0180   23.4080 C.2     1  LIG   0.7361   0.5438 
11    C6      -0.1190  -36.0770   21.8860 C.ar    1  LIG  -0.2550   0.0862 
12    C7      -1.1230  -35.3990   21.1890 C.ar    1  LIG  -0.0321  -0.1500 
13    H4      -1.7552  -34.6955   21.7041 H       1  LIG   0.1623   0.1500 
14    C8      -1.2960  -35.6300   19.8690 C.ar    1  LIG  -0.2723  -0.1500 
15    H5      -2.0662  -35.1073   19.3273 H       1  LIG   0.1522   0.1500 
16    C9      -0.4670  -36.5450   19.2400 C.ar    1  LIG   0.4373   0.1600 
17    H6      -0.5947  -36.7554   18.1915 H       1  LIG   0.0280   0.1500 
18    N3       0.5220  -37.2120   19.8740 N.ar    1  LIG  -0.6893  -0.6200 
19    C10      0.7040  -36.9790   21.1800 C.ar    1  LIG   0.6480   0.4100 
20    N4       1.7670  -37.6730   21.8260 N.pl3   1  LIG  -0.6924  -0.3690 
21    C11      2.7540  -36.8570   22.5840 C.ar    1  LIG   0.5805   0.4100 
22    C12      2.9040  -34.5090   25.6010 C.3     1  LIG  -0.0620   0.1435 
23    H7       2.2235  -33.7630   25.2820 H       1  LIG   0.0570   0.0000 
24    H8       2.4436  -35.1154   26.3371 H       1  LIG   0.0495   0.0000 
25    H9       3.7654  -34.0491   26.0108 H       1  LIG   0.0519   0.0000 
26    O1      -1.2400  -35.9060   23.9770 O.2     1  LIG  -0.6361  -0.5700 
27    C13      2.3440  -38.7570   21.0360 C.3     1  LIG   0.1354   0.0690 
28    H10      3.1238  -38.3754   20.4296 H       1  LIG   0.0981   0.1000 
29    C14      2.9380  -39.8900   21.8010 C.3     1  LIG  -0.1181  -0.2000 
30    H11      3.8890  -40.1268   21.3997 H       1  LIG   0.0732   0.1000 
31    H12      3.0430  -39.6129   22.8177 H       1  LIG   0.0789   0.1000 
32    C15      1.6390  -40.0610   21.0880 C.3     1  LIG  -0.1196  -0.2000 
33    H13      0.6832  -39.9283   21.5242 H       1  LIG   0.0807   0.1000 
34    H14      1.5292  -40.4423   20.1061 H       1  LIG   0.0733   0.1000 
@<TRIPOS>BOND
1     2     1     ar
2     3     2     1
3     4     2     ar
4     5     4     1
5     6     4     ar
6     7     6     ar
7     8     7     1
8     9     8     1
9     10    8     1
10    11    10    1
11    12    11    ar
12    13    12    1
13    14    12    ar
14    15    14    1
15    16    14    ar
16    17    16    1
17    18    16    ar
18    19    11    ar
19    19    18    ar
20    20    19    1
21    21    1     ar
22    21    7     ar
23    21    20    1
24    22    6     1
25    23    22    1
26    24    22    1
27    25    22    1
28    26    10    2
29    27    20    1
30    28    27    1
31    29    27    1
32    30    29    1
33    31    29    1
34    32    27    1
35    32    29    1
36    33    32    1
37    34    32    1
@<TRIPOS>SUBSTRUCTURE
1   LIG    1    
 
########## Name        : 1VRT.lig
########## Description : AM1BCC_CHARGES =  -0.0002 ORIGINAL_CHARGES =  -0.0000

@<TRIPOS>MOLECULE
1VRT.lig
34    37    1     0     0    
SMALL
USER_CHARGES
@<TRIPOS>ATOM
1     N1       4.0540  -36.9310   22.2210 N.ar    1  LIG  -0.6650  -0.6200 
2     C1       4.9660  -36.2380   22.9390 C.ar    1  LIG   0.3947   0.1600 
3     H1       6.0082  -36.2811   22.6707 H       1  LIG   0.0281   0.1500 
4     C2       4.6240  -35.4500   24.0360 C.ar    1  LIG  -0.2334  -0.1500 
5     H2       5.3884  -34.9151   24.5740 H       1  LIG   0.1480   0.1500 
6     C3       3.3050  -35.3690   24.4150 C.ar    1  LIG  -0.0698  -0.1435 
7     C4       2.3460  -36.0770   23.6860 C.ar    1  LIG  -0.0398   0.1170 
8     N2       0.9890  -36.0280   24.1030 N.am    1  LIG  -0.4596  -0.5470 
9     H3       0.7643  -35.9928   25.0860 H       1  LIG   0.3311   0.3700 
10    C5      -0.1450  -36.0180   23.4080 C.2     1  LIG   0.7361   0.5438 
11    C6      -0.1190  -36.0770   21.8860 C.ar    1  LIG  -0.2550   0.0862 
12    C7      -1.1230  -35.3990   21.1890 C.ar    1  LIG  -0.0321  -0.1500 
13    H4      -1.7552  -34.6955   21.7041 H       1  LIG   0.1623   0.1500 
14    C8      -1.2960  -35.6300   19.8690 C.ar    1  LIG  -0.2723  -0.1500 
15    H5      -2.0662  -35.1073   19.3273 H       1  LIG   0.1522   0.1500 
16    C9      -0.4670  -36.5450   19.2400 C.ar    1  LIG   0.4373   0.1600 
17    H6      -0.5947  -36.7554   18.1915 H       1  LIG   0.0280   0.1500 
18    N3       0.5220  -37.2120   19.8740 N.ar    1  LIG  -0.6893  -0.6200 
19    C10      0.7040  -36.9790   21.1800 C.ar    1  LIG   0.6480   0.4100 
20    N4       1.7670  -37.6730   21.8260 N.pl3   1  LIG  -0.6924  -0.3690 
21    C11      2.7540  -36.8570   22.5840 C.ar    1  LIG   0.5805   0.4100 
22    C12      2.9040  -34.5090   25.6010 C.3     1  LIG  -0.0620   0.1435 
23    H7       2.2235  -33.7630   25.2820 H       1  LIG   0.0570   0.0000 
24    H8       2.4436  -35.1154   26.3371 H       1  LIG   0.0495   0.0000 
25    H9       3.7654  -34.0491   26.0108 H       1  LIG   0.0519   0.0000 
26    O1      -1.2400  -35.9060   23.9770 O.2     1  LIG  -0.6361  -0.5700 
27    C13      2.3440  -38.7570   21.0360 C.3     1  LIG   0.1354   0.0690 
28    H10      3.1238  -38.3754   20.4296 H       1  LIG   0.0981   0.1000 
29    C14      2.9380  -39.8900   21.8010 C.3     1  LIG  -0.1181  -0.2000 
30    H11      3.8890  -40.1268   21.3997 H       1  LIG   0.0732   0.1000 
31    H12      3.0430  -39.6129   22.8177 H       1  LIG   0.0789   0.1000 
32    C15      1.6390  -40.0610   21.0880 C.3     1  LIG  -0.1196  -0.2000 
33    H13      0.6832  -39.9283   21.5242 H       1  LIG   0.0807   0.1000 
34    H14      1.5292  -40.4423   20.1061 H       1  LIG   0.0733   0.1000 
@<TRIPOS>BOND
1     2     1     ar
2     3     2     1
3     4     2     ar
4     5     4     1
5     6     4     ar
6     7     6     ar
7     8     7     1
8     9     8     1
9     10    8     1
10    11    10    1
11    12    11    ar
12    13    12    1
13    14    12    ar
14    15    14    1
15    16    14    ar
16    17    16    1
17    18    16    ar
18    19    11    ar
19    19    18    ar
20    20    19    1
21    21    1     ar
22    21    7     ar
23    21    20    1
24    22    6     1
25    23    22    1
26    24    22    1
27    25    22    1
28    26    10    2
29    27    20    1
30    28    27    1
31    29    27    1
32    30    29    1
33    31    29    1
34    32    27    1
35    32    29    1
36    33    32    1
37    34    32    1
@<TRIPOS>SUBSTRUCTURE
1   LIG    1    
 
########## Name        : 1VRT.lig
########## Description : AM1BCC_CHARGES =  -0.0002 ORIGINAL_CHARGES =  -0.0000

@<TRIPOS>MOLECULE
1VRT.lig
34    37    1     0     0    
SMALL
USER_CHARGES
@<TRIPOS>ATOM
1     N1       4.0540  -36.9310   22.2210 N.ar    1  LIG  -0.6650  -0.6200 
2     C1       4.9660  -36.2380   22.9390 C.ar    1  LIG   0.3947   0.1600 
3     H1       6.0082  -36.2811   22.6707 H       1  LIG   0.0281   0.1500 
4     C2       4.6240  -35.4500   24.0360 C.ar    1  LIG  -0.2334  -0.1500 
5     H2       5.3884  -34.9151   24.5740 H       1  LIG   0.1480   0.1500 
6     C3       3.3050  -35.3690   24.4150 C.ar    1  LIG  -0.0698  -0.1435 
7     C4       2.3460  -36.0770   23.6860 C.ar    1  LIG  -0.0398   0.1170 
8     N2       0.9890  -36.0280   24.1030 N.am    1  LIG  -0.4596  -0.5470 
9     H3       0.7643  -35.9928   25.0860 H       1  LIG   0.3311   0.3700 
10    C5      -0.1450  -36.0180   23.4080 C.2     1  LIG   0.7361   0.5438 
11    C6      -0.1190  -36.0770   21.8860 C.ar    1  LIG  -0.2550   0.0862 
12    C7      -1.1230  -35.3990   21.1890 C.ar    1  LIG  -0.0321  -0.1500 
13    H4      -1.7552  -34.6955   21.7041 H       1  LIG   0.1623   0.1500 
14    C8      -1.2960  -35.6300   19.8690 C.ar    1  LIG  -0.2723  -0.1500 
15    H5      -2.0662  -35.1073   19.3273 H       1  LIG   0.1522   0.1500 
16    C9      -0.4670  -36.5450   19.2400 C.ar    1  LIG   0.4373   0.1600 
17    H6      -0.5947  -36.7554   18.1915 H       1  LIG   0.0280   0.1500 
18    N3       0.5220  -37.2120   19.8740 N.ar    1  LIG  -0.6893  -0.6200 
19    C10      0.7040  -36.9790   21.1800 C.ar    1  LIG   0.6480   0.4100 
20    N4       1.7670  -37.6730   21.8260 N.pl3   1  LIG  -0.6924  -0.3690 
21    C11      2.7540  -36.8570   22.5840 C.ar    1  LIG   0.5805   0.4100 
22    C12      2.9040  -34.5090   25.6010 C.3     1  LIG  -0.0620   0.1435 
23    H7       2.2235  -33.7630   25.2820 H       1  LIG   0.0570   0.0000 
24    H8       2.4436  -35.1154   26.3371 H       1  LIG   0.0495   0.0000 
25    H9       3.7654  -34.0491   26.0108 H       1  LIG   0.0519   0.0000 
26    O1      -1.2400  -35.9060   23.9770 O.2     1  LIG  -0.6361  -0.5700 
27    C13      2.3440  -38.7570   21.0360 C.3     1  LIG   0.1354   0.0690 
28    H10      3.1238  -38.3754   20.4296 H       1  LIG   0.0981   0.1000 
29    C14      2.9380  -39.8900   21.8010 C.3     1  LIG  -0.1181  -0.2000 
30    H11      3.8890  -40.1268   21.3997 H       1  LIG   0.0732   0.1000 
31    H12      3.0430  -39.6129   22.8177 H       1  LIG   0.0789   0.1000 
32    C15      1.6390  -40.0610   21.0880 C.3     1  LIG  -0.1196  -0.2000 
33    H13      0.6832  -39.9283   21.5242 H       1  LIG   0.0807   0.1000 
34    H14      1.5292  -40.4423   20.1061 H       1  LIG   0.0733   0.1000 
@<TRIPOS>BOND
1     2     1     ar
2     3     2     1
3     4     2     ar
4     5     4     1
5     6     4     ar
6     7     6     ar
7     8     7     1
8     9     8     1
9     10    8     1
10    11    10    1
11    12    11    ar
12    13    12    1
13    14    12    ar
14    15    14    1
15    16    14    ar
16    17    16    1
17    18    16    ar
18    19    11    ar
19    19    18    ar
20    20    19    1
21    21    1     ar
22    21    7     ar
23    21    20    1
24    22    6     1
25    23    22    1
26    24    22    1
27    25    22    1
28    26    10    2
29    27    20    1
30    28    27    1
31    29    27    1
32    30    29    1
33    31    29    1
34    32    27    1
35    32    29    1
36    33    32    1
37    34    32    1
@<TRIPOS>SUBSTRUCTURE
1   LIG    1    
 
########## Name        : 1VRT.lig
########## Description : AM1BCC_CHARGES =  -0.0002 ORIGINAL_CHARGES =  -0.0000

@<TRIPOS>MOLECULE
1VRT.lig
34    37    1     0     0    
SMALL
USER_CHARGES
@<TRIPOS>ATOM
1     N1       4.0540  -36.9310   22.2210 N.ar    1  LIG  -0.6650  -0.6200 
2     C1       4.9660  -36.2380   22.9390 C.ar    1  LIG   0.3947   0.1600 
3     H1       6.0082  -36.2811   22.6707 H       1  LIG   0.0281   0.1500 
4     C2       4.6240  -35.4500   24.0360 C.ar    1  LIG  -0.2334  -0.1500 
5     H2       5.3884  -34.9151   24.5740 H       1  LIG   0.1480   0.1500 
6     C3       3.3050  -35.3690   24.4150 C.ar    1  LIG  -0.0698  -0.1435 
7     C4       2.3460  -36.0770   23.6860 C.ar    1  LIG  -0.0398   0.1170 
8     N2       0.9890  -36.0280   24.1030 N.am    1  LIG  -0.4596  -0.5470 
9     H3       0.7643  -35.9928   25.0860 H       1  LIG   0.3311   0.3700 
10    C5      -0.1450  -36.0180   23.4080 C.2     1  LIG   0.7361   0.5438 
11    C6      -0.1190  -36.0770   21.8860 C.ar    1  LIG  -0.2550   0.0862 
12    C7      -1.1230  -35.3990   21.1890 C.ar    1  LIG  -0.0321  -0.1500 
13    H4      -1.7552  -34.6955   21.7041 H       1  LIG   0.1623   0.1500 
14    C8      -1.2960  -35.6300   19.8690 C.ar    1  LIG  -0.2723  -0.1500 
15    H5      -2.0662  -35.1073   19.3273 H       1  LIG   0.1522   0.1500 
16    C9      -0.4670  -36.5450   19.2400 C.ar    1  LIG   0.4373   0.1600 
17    H6      -0.5947  -36.7554   18.1915 H       1  LIG   0.0280   0.1500 
18    N3       0.5220  -37.2120   19.8740 N.ar    1  LIG  -0.6893  -0.6200 
19    C10      0.7040  -36.9790   21.1800 C.ar    1  LIG   0.6480   0.4100 
20    N4       1.7670  -37.6730   21.8260 N.pl3   1  LIG  -0.6924  -0.3690 
21    C11      2.7540  -36.8570   22.5840 C.ar    1  LIG   0.5805   0.4100 
22    C12      2.9040  -34.5090   25.6010 C.3     1  LIG  -0.0620   0.1435 
23    H7       2.2235  -33.7630   25.2820 H       1  LIG   0.0570   0.0000 
24    H8       2.4436  -35.1154   26.3371 H       1  LIG   0.0495   0.0000 
25    H9       3.7654  -34.0491   26.0108 H       1  LIG   0.0519   0.0000 
26    O1      -1.2400  -35.9060   23.9770 O.2     1  LIG  -0.6361  -0.5700 
27    C13      2.3440  -38.7570   21.0360 C.3     1  LIG   0.1354   0.0690 
28    H10      3.1238  -38.3754   20.4296 H       1  LIG   0.0981   0.1000 
29    C14      2.9380  -39.8900   21.8010 C.3     1  LIG  -0.1181  -0.2000 
30    H11      3.8890  -40.1268   21.3997 H       1  LIG   0.0732   0.1000 
31    H12      3.0430  -39.6129   22.8177 H       1  LIG   0.0789   0.1000 
32    C15      1.6390  -40.0610   21.0880 C.3     1  LIG  -0.1196  -0.2000 
33    H13      0.6832  -39.9283   21.5242 H       1  LIG   0.0807   0.1000 
34    H14      1.5292  -40.4423   20.1061 H       1  LIG   0.0733   0.1000 
@<TRIPOS>BOND
1     2     1     ar
2     3     2     1
3     4     2     ar
4     5     4     1
5     6     4     ar
6     7     6     ar
7     8     7     1
8     9     8     1
9     10    8     1
10    11    10    1
11    12    11    ar
12    13    12    1
13    14    12    ar
14    15    14    1
15    16    14    ar
16    17    16    1
17    18    16    ar
18    19    11    ar
19    19    18    ar
20    20    19    1
21    21    1     ar
22    21    7     ar
23    21    20    1
24    22    6     1
25    23    22    1
26    24    22    1
27    25    22    1
28    26    10    2
29    27    20    1
30    28    27    1
31    29    27    1
32    30    29    1
33    31    29    1
34    32    27    1
35    32    29    1
36    33    32    1
37    34    32    1
@<TRIPOS>SUBSTRUCTURE
1   LIG    1    
 
########## Name        : 1VRT.lig
########## Description : AM1BCC_CHARGES =  -0.0002 ORIGINAL_CHARGES =  -0.0000

@<TRIPOS>MOLECULE
1VRT.lig
34    37    1     0     0    
SMALL
USER_CHARGES
@<TRIPOS>ATOM
1     N1       4.0540  -36.9310   22.2210 N.ar    1  LIG  -0.6650  -0.6200 
2     C1       4.9660  -36.2380   22.9390 C.ar    1  LIG   0.3947   0.1600 
3     H1       6.0082  -36.2811   22.6707 H       1  LIG   0.0281   0.1500 
4     C2       4.6240  -35.4500   24.0360 C.ar    1  LIG  -0.2334  -0.1500 
5     H2       5.3884  -34.9151   24.5740 H       1  LIG   0.1480   0.1500 
6     C3       3.3050  -35.3690   24.4150 C.ar    1  LIG  -0.0698  -0.1435 
7     C4       2.3460  -36.0770   23.6860 C.ar    1  LIG  -0.0398   0.1170 
8     N2       0.9890  -36.0280   24.1030 N.am    1  LIG  -0.4596  -0.5470 
9     H3       0.7643  -35.9928   25.0860 H       1  LIG   0.3311   0.3700 
10    C5      -0.1450  -36.0180   23.4080 C.2     1  LIG   0.7361   0.5438 
11    C6      -0.1190  -36.0770   21.8860 C.ar    1  LIG  -0.2550   0.0862 
12    C7      -1.1230  -35.3990   21.1890 C.ar    1  LIG  -0.0321  -0.1500 
13    H4      -1.7552  -34.6955   21.7041 H       1  LIG   0.1623   0.1500 
14    C8      -1.2960  -35.6300   19.8690 C.ar    1  LIG  -0.2723  -0.1500 
15    H5      -2.0662  -35.1073   19.3273 H       1  LIG   0.1522   0.1500 
16    C9      -0.4670  -36.5450   19.2400 C.ar    1  LIG   0.4373   0.1600 
17    H6      -0.5947  -36.7554   18.1915 H       1  LIG   0.0280   0.1500 
18    N3       0.5220  -37.2120   19.8740 N.ar    1  LIG  -0.6893  -0.6200 
19    C10      0.7040  -36.9790   21.1800 C.ar    1  LIG   0.6480   0.4100 
20    N4       1.7670  -37.6730   21.8260 N.pl3   1  LIG  -0.6924  -0.3690 
21    C11      2.7540  -36.8570   22.5840 C.ar    1  LIG   0.5805   0.4100 
22    C12      2.9040  -34.5090   25.6010 C.3     1  LIG  -0.0620   0.1435 
23    H7       2.2235  -33.7630   25.2820 H       1  LIG   0.0570   0.0000 
24    H8       2.4436  -35.1154   26.3371 H       1  LIG   0.0495   0.0000 
25    H9       3.7654  -34.0491   26.0108 H       1  LIG   0.0519   0.0000 
26    O1      -1.2400  -35.9060   23.9770 O.2     1  LIG  -0.6361  -0.5700 
27    C13      2.3440  -38.7570   21.0360 C.3     1  LIG   0.1354   0.0690 
28    H10      3.1238  -38.3754   20.4296 H       1  LIG   0.0981   0.1000 
29    C14      2.9380  -39.8900   21.8010 C.3     1  LIG  -0.1181  -0.2000 
30    H11      3.8890  -40.1268   21.3997 H       1  LIG   0.0732   0.1000 
31    H12      3.0430  -39.6129   22.8177 H       1  LIG   0.0789   0.1000 
32    C15      1.6390  -40.0610   21.0880 C.3     1  LIG  -0.1196  -0.2000 
33    H13      0.6832  -39.9283   21.5242 H       1  LIG   0.0807   0.1000 
34    H14      1.5292  -40.4423   20.1061 H       1  LIG   0.0733   0.1000 
@<TRIPOS>BOND
1     2     1     ar
2     3     2     1
3     4     2     ar
4     5     4     1
5     6     4     ar
6     7     6     ar
7     8     7     1
8     9     8     1
9     10    8     1
10    11    10    1
11    12    11    ar
12    13    12    1
13    14    12    ar
14    15    14    1
15    16    14    ar
16    17    16    1
17    18    16    ar
18    19    11    ar
19    19    18    ar
20    20    19    1
21    21    1     ar
22    21    7     ar
23    21    20    1
24    22    6     1
25    23    22    1
26    24    22    1
27    25    22    1
28    26    10    2
29    27    20    1
30    28    27    1
31    29    27    1
32    30    29    1
33    31    29    1
34    32    27    1
35    32    29    1
36    33    32    1
37    34    32    1
@<TRIPOS>SUBSTRUCTURE
1   LIG    1    
 
########## Name        : 1VRT.lig
########## Description : AM1BCC_CHARGES =  -0.0002 ORIGINAL_CHARGES =  -0.0000

@<TRIPOS>MOLECULE
1VRT.lig
34    37    1     0     0    
SMALL
USER_CHARGES
@<TRIPOS>ATOM
1     N1       4.0540  -36.9310   22.2210 N.ar    1  LIG  -0.6650  -0.6200 
2     C1       4.9660  -36.2380   22.9390 C.ar    1  LIG   0.3947   0.1600 
3     H1       6.0082  -36.2811   22.6707 H       1  LIG   0.0281   0.1500 
4     C2       4.6240  -35.4500   24.0360 C.ar    1  LIG  -0.2334  -0.1500 
5     H2       5.3884  -34.9151   24.5740 H       1  LIG   0.1480   0.1500 
6     C3       3.3050  -35.3690   24.4150 C.ar    1  LIG  -0.0698  -0.1435 
7     C4       2.3460  -36.0770   23.6860 C.ar    1  LIG  -0.0398   0.1170 
8     N2       0.9890  -36.0280   24.1030 N.am    1  LIG  -0.4596  -0.5470 
9     H3       0.7643  -35.9928   25.0860 H       1  LIG   0.3311   0.3700 
10    C5      -0.1450  -36.0180   23.4080 C.2     1  LIG   0.7361   0.5438 
11    C6      -0.1190  -36.0770   21.8860 C.ar    1  LIG  -0.2550   0.0862 
12    C7      -1.1230  -35.3990   21.1890 C.ar    1  LIG  -0.0321  -0.1500 
13    H4      -1.7552  -34.6955   21.7041 H       1  LIG   0.1623   0.1500 
14    C8      -1.2960  -35.6300   19.8690 C.ar    1  LIG  -0.2723  -0.1500 
15    H5      -2.0662  -35.1073   19.3273 H       1  LIG   0.1522   0.1500 
16    C9      -0.4670  -36.5450   19.2400 C.ar    1  LIG   0.4373   0.1600 
17    H6      -0.5947  -36.7554   18.1915 H       1  LIG   0.0280   0.1500 
18    N3       0.5220  -37.2120   19.8740 N.ar    1  LIG  -0.6893  -0.6200 
19    C10      0.7040  -36.9790   21.1800 C.ar    1  LIG   0.6480   0.4100 
20    N4       1.7670  -37.6730   21.8260 N.pl3   1  LIG  -0.6924  -0.3690 
21    C11      2.7540  -36.8570   22.5840 C.ar    1  LIG   0.5805   0.4100 
22    C12      2.9040  -34.5090   25.6010 C.3     1  LIG  -0.0620   0.1435 
23    H7       2.2235  -33.7630   25.2820 H       1  LIG   0.0570   0.0000 
24    H8       2.4436  -35.1154   26.3371 H       1  LIG   0.0495   0.0000 
25    H9       3.7654  -34.0491   26.0108 H       1  LIG   0.0519   0.0000 
26    O1      -1.2400  -35.9060   23.9770 O.2     1  LIG  -0.6361  -0.5700 
27    C13      2.3440  -38.7570   21.0360 C.3     1  LIG   0.1354   0.0690 
28    H10      3.1238  -38.3754   20.4296 H       1  LIG   0.0981   0.1000 
29    C14      2.9380  -39.8900   21.8010 C.3     1  LIG  -0.1181  -0.2000 
30    H11      3.8890  -40.1268   21.3997 H       1  LIG   0.0732   0.1000 
31    H12      3.0430  -39.6129   22.8177 H       1  LIG   0.0789   0.1000 
32    C15      1.6390  -40.0610   21.0880 C.3     1  LIG  -0.1196  -0.2000 
33    H13      0.6832  -39.9283   21.5242 H       1  LIG   0.0807   0.1000 
34    H14      1.5292  -40.4423   20.1061 H       1  LIG   0.0733   0.1000 
@<TRIPOS>BOND
1     2     1     ar
2     3     2     1
3     4     2     ar
4     5     4     1
5     6     4     ar
6     7     6     ar
7     8     7     1
8     9     8     1
9     10    8     1
10    11    10    1
11    12    11    ar
12    13    12    1
13    14    12    ar
14    15    14    1
15    16    14    ar
16    17    16    1
17    18    16    ar
18    19    11    ar
19    19    18    ar
20    20    19    1
21    21    1     ar
22    21    7     ar
23    21    20    1
24    22    6     1
25    23    22    1
26    24    22    1
27    25    22    1
28    26    10    2
29    27    20    1
30    28    27    1
31    29    27    1
32    30    29    1
33    31    29    1
34    32    27    1
35    32    29    1
36    33    32    1
37    34    32    1
@<TRIPOS>SUBSTRUCTURE
1   LIG    1    
 
########## Name        : 1VRT.lig
########## Description : AM1BCC_CHARGES =  -0.0002 ORIGINAL_CHARGES =  -0.0000

@<TRIPOS>MOLECULE
1VRT.lig
34    37    1     0     0    
SMALL
USER_CHARGES
@<TRIPOS>ATOM
1     N1       4.0540  -36.9310   22.2210 N.ar    1  LIG  -0.6650  -0.6200 
2     C1       4.9660  -36.2380   22.9390 C.ar    1  LIG   0.3947   0.1600 
3     H1       6.0082  -36.2811   22.6707 H       1  LIG   0.0281   0.1500 
4     C2       4.6240  -35.4500   24.0360 C.ar    1  LIG  -0.2334  -0.1500 
5     H2       5.3884  -34.9151   24.5740 H       1  LIG   0.1480   0.1500 
6     C3       3.3050  -35.3690   24.4150 C.ar    1  LIG  -0.0698  -0.1435 
7     C4       2.3460  -36.0770   23.6860 C.ar    1  LIG  -0.0398   0.1170 
8     N2       0.9890  -36.0280   24.1030 N.am    1  LIG  -0.4596  -0.5470 
9     H3       0.7643  -35.9928   25.0860 H       1  LIG   0.3311   0.3700 
10    C5      -0.1450  -36.0180   23.4080 C.2     1  LIG   0.7361   0.5438 
11    C6      -0.1190  -36.0770   21.8860 C.ar    1  LIG  -0.2550   0.0862 
12    C7      -1.1230  -35.3990   21.1890 C.ar    1  LIG  -0.0321  -0.1500 
13    H4      -1.7552  -34.6955   21.7041 H       1  LIG   0.1623   0.1500 
14    C8      -1.2960  -35.6300   19.8690 C.ar    1  LIG  -0.2723  -0.1500 
15    H5      -2.0662  -35.1073   19.3273 H       1  LIG   0.1522   0.1500 
16    C9      -0.4670  -36.5450   19.2400 C.ar    1  LIG   0.4373   0.1600 
17    H6      -0.5947  -36.7554   18.1915 H       1  LIG   0.0280   0.1500 
18    N3       0.5220  -37.2120   19.8740 N.ar    1  LIG  -0.6893  -0.6200 
19    C10      0.7040  -36.9790   21.1800 C.ar    1  LIG   0.6480   0.4100 
20    N4       1.7670  -37.6730   21.8260 N.pl3   1  LIG  -0.6924  -0.3690 
21    C11      2.7540  -36.8570   22.5840 C.ar    1  LIG   0.5805   0.4100 
22    C12      2.9040  -34.5090   25.6010 C.3     1  LIG  -0.0620   0.1435 
23    H7       2.2235  -33.7630   25.2820 H       1  LIG   0.0570   0.0000 
24    H8       2.4436  -35.1154   26.3371 H       1  LIG   0.0495   0.0000 
25    H9       3.7654  -34.0491   26.0108 H       1  LIG   0.0519   0.0000 
26    O1      -1.2400  -35.9060   23.9770 O.2     1  LIG  -0.6361  -0.5700 
27    C13      2.3440  -38.7570   21.0360 C.3     1  LIG   0.1354   0.0690 
28    H10      3.1238  -38.3754   20.4296 H       1  LIG   0.0981   0.1000 
29    C14      2.9380  -39.8900   21.8010 C.3     1  LIG  -0.1181  -0.2000 
30    H11      3.8890  -40.1268   21.3997 H       1  LIG   0.0732   0.1000 
31    H12      3.0430  -39.6129   22.8177 H       1  LIG   0.0789   0.1000 
32    C15      1.6390  -40.0610   21.0880 C.3     1  LIG  -0.1196  -0.2000 
33    H13      0.6832  -39.9283   21.5242 H       1  LIG   0.0807   0.1000 
34    H14      1.5292  -40.4423   20.1061 H       1  LIG   0.0733   0.1000 
@<TRIPOS>BOND
1     2     1     ar
2     3     2     1
3     4     2     ar
4     5     4     1
5     6     4     ar
6     7     6     ar
7     8     7     1
8     9     8     1
9     10    8     1
10    11    10    1
11    12    11    ar
12    13    12    1
13    14    12    ar
14    15    14    1
15    16    14    ar
16    17    16    1
17    18    16    ar
18    19    11    ar
19    19    18    ar
20    20    19    1
21    21    1     ar
22    21    7     ar
23    21    20    1
24    22    6     1
25    23    22    1
26    24    22    1
27    25    22    1
28    26    10    2
29    27    20    1
30    28    27    1
31    29    27    1
32    30    29    1
33    31    29    1
34    32    27    1
35    32    29    1
36    33    32    1
37    34    32    1
@<TRIPOS>SUBSTRUCTURE
1   LIG    1    
 
########## Name        : 1VRT.lig
########## Description : AM1BCC_CHARGES =  -0.0002 ORIGINAL_CHARGES =  -0.0000

@<TRIPOS>MOLECULE
1VRT.lig
34    37    1     0     0    
SMALL
USER_CHARGES
@<TRIPOS>ATOM
1     N1       4.0540  -36.9310   22.2210 N.ar    1  LIG  -0.6650  -0.6200 
2     C1       4.9660  -36.2380   22.9390 C.ar    1  LIG   0.3947   0.1600 
3     H1       6.0082  -36.2811   22.6707 H       1  LIG   0.0281   0.1500 
4     C2       4.6240  -35.4500   24.0360 C.ar    1  LIG  -0.2334  -0.1500 
5     H2       5.3884  -34.9151   24.5740 H       1  LIG   0.1480   0.1500 
6     C3       3.3050  -35.3690   24.4150 C.ar    1  LIG  -0.0698  -0.1435 
7     C4       2.3460  -36.0770   23.6860 C.ar    1  LIG  -0.0398   0.1170 
8     N2       0.9890  -36.0280   24.1030 N.am    1  LIG  -0.4596  -0.5470 
9     H3       0.7643  -35.9928   25.0860 H       1  LIG   0.3311   0.3700 
10    C5      -0.1450  -36.0180   23.4080 C.2     1  LIG   0.7361   0.5438 
11    C6      -0.1190  -36.0770   21.8860 C.ar    1  LIG  -0.2550   0.0862 
12    C7      -1.1230  -35.3990   21.1890 C.ar    1  LIG  -0.0321  -0.1500 
13    H4      -1.7552  -34.6955   21.7041 H       1  LIG   0.1623   0.1500 
14    C8      -1.2960  -35.6300   19.8690 C.ar    1  LIG  -0.2723  -0.1500 
15    H5      -2.0662  -35.1073   19.3273 H       1  LIG   0.1522   0.1500 
16    C9      -0.4670  -36.5450   19.2400 C.ar    1  LIG   0.4373   0.1600 
17    H6      -0.5947  -36.7554   18.1915 H       1  LIG   0.0280   0.1500 
18    N3       0.5220  -37.2120   19.8740 N.ar    1  LIG  -0.6893  -0.6200 
19    C10      0.7040  -36.9790   21.1800 C.ar    1  LIG   0.6480   0.4100 
20    N4       1.7670  -37.6730   21.8260 N.pl3   1  LIG  -0.6924  -0.3690 
21    C11      2.7540  -36.8570   22.5840 C.ar    1  LIG   0.5805   0.4100 
22    C12      2.9040  -34.5090   25.6010 C.3     1  LIG  -0.0620   0.1435 
23    H7       2.2235  -33.7630   25.2820 H       1  LIG   0.0570   0.0000 
24    H8       2.4436  -35.1154   26.3371 H       1  LIG   0.0495   0.0000 
25    H9       3.7654  -34.0491   26.0108 H       1  LIG   0.0519   0.0000 
26    O1      -1.2400  -35.9060   23.9770 O.2     1  LIG  -0.6361  -0.5700 
27    C13      2.3440  -38.7570   21.0360 C.3     1  LIG   0.1354   0.0690 
28    H10      3.1238  -38.3754   20.4296 H       1  LIG   0.0981   0.1000 
29    C14      2.9380  -39.8900   21.8010 C.3     1  LIG  -0.1181  -0.2000 
30    H11      3.8890  -40.1268   21.3997 H       1  LIG   0.0732   0.1000 
31    H12      3.0430  -39.6129   22.8177 H       1  LIG   0.0789   0.1000 
32    C15      1.6390  -40.0610   21.0880 C.3     1  LIG  -0.1196  -0.2000 
33    H13      0.6832  -39.9283   21.5242 H       1  LIG   0.0807   0.1000 
34    H14      1.5292  -40.4423   20.1061 H       1  LIG   0.0733   0.1000 
@<TRIPOS>BOND
1     2     1     ar
2     3     2     1
3     4     2     ar
4     5     4     1
5     6     4     ar
6     7     6     ar
7     8     7     1
8     9     8     1
9     10    8     1
10    11    10    1
11    12    11    ar
12    13    12    1
13    14    12    ar
14    15    14    1
15    16    14    ar
16    17    16    1
17    18    16    ar
18    19    11    ar
19    19    18    ar
20    20    19    1
21    21    1     ar
22    21    7     ar
23    21    20    1
24    22    6     1
25    23    22    1
26    24    22    1
27    25    22    1
28    26    10    2
29    27    20    1
30    28    27    1
31    29    27    1
32    30    29    1
33    31    29    1
34    32    27    1
35    32    29    1
36    33    32    1
37    34    32    1
@<TRIPOS>SUBSTRUCTURE
1   LIG    1    
 
########## Name        : 1VRT.lig
########## Description : AM1BCC_CHARGES =  -0.0002 ORIGINAL_CHARGES =  -0.0000

@<TRIPOS>MOLECULE
1VRT.lig
34    37    1     0     0    
SMALL
USER_CHARGES
@<TRIPOS>ATOM
1     N1       4.0540  -36.9310   22.2210 N.ar    1  LIG  -0.6650  -0.6200 
2     C1       4.9660  -36.2380   22.9390 C.ar    1  LIG   0.3947   0.1600 
3     H1       6.0082  -36.2811   22.6707 H       1  LIG   0.0281   0.1500 
4     C2       4.6240  -35.4500   24.0360 C.ar    1  LIG  -0.2334  -0.1500 
5     H2       5.3884  -34.9151   24.5740 H       1  LIG   0.1480   0.1500 
6     C3       3.3050  -35.3690   24.4150 C.ar    1  LIG  -0.0698  -0.1435 
7     C4       2.3460  -36.0770   23.6860 C.ar    1  LIG  -0.0398   0.1170 
8     N2       0.9890  -36.0280   24.1030 N.am    1  LIG  -0.4596  -0.5470 
9     H3       0.7643  -35.9928   25.0860 H       1  LIG   0.3311   0.3700 
10    C5      -0.1450  -36.0180   23.4080 C.2     1  LIG   0.7361   0.5438 
11    C6      -0.1190  -36.0770   21.8860 C.ar    1  LIG  -0.2550   0.0862 
12    C7      -1.1230  -35.3990   21.1890 C.ar    1  LIG  -0.0321  -0.1500 
13    H4      -1.7552  -34.6955   21.7041 H       1  LIG   0.1623   0.1500 
14    C8      -1.2960  -35.6300   19.8690 C.ar    1  LIG  -0.2723  -0.1500 
15    H5      -2.0662  -35.1073   19.3273 H       1  LIG   0.1522   0.1500 
16    C9      -0.4670  -36.5450   19.2400 C.ar    1  LIG   0.4373   0.1600 
17    H6      -0.5947  -36.7554   18.1915 H       1  LIG   0.0280   0.1500 
18    N3       0.5220  -37.2120   19.8740 N.ar    1  LIG  -0.6893  -0.6200 
19    C10      0.7040  -36.9790   21.1800 C.ar    1  LIG   0.6480   0.4100 
20    N4       1.7670  -37.6730   21.8260 N.pl3   1  LIG  -0.6924  -0.3690 
21    C11      2.7540  -36.8570   22.5840 C.ar    1  LIG   0.5805   0.4100 
22    C12      2.9040  -34.5090   25.6010 C.3     1  LIG  -0.0620   0.1435 
23    H7       2.2235  -33.7630   25.2820 H       1  LIG   0.0570   0.0000 
24    H8       2.4436  -35.1154   26.3371 H       1  LIG   0.0495   0.0000 
25    H9       3.7654  -34.0491   26.0108 H       1  LIG   0.0519   0.0000 
26    O1      -1.2400  -35.9060   23.9770 O.2     1  LIG  -0.6361  -0.5700 
27    C13      2.3440  -38.7570   21.0360 C.3     1  LIG   0.1354   0.0690 
28    H10      3.1238  -38.3754   20.4296 H       1  LIG   0.0981   0.1000 
29    C14      2.9380  -39.8900   21.8010 C.3     1  LIG  -0.1181  -0.2000 
30    H11      3.8890  -40.1268   21.3997 H       1  LIG   0.0732   0.1000 
31    H12      3.0430  -39.6129   22.8177 H       1  LIG   0.0789   0.1000 
32    C15      1.6390  -40.0610   21.0880 C.3     1  LIG  -0.1196  -0.2000 
33    H13      0.6832  -39.9283   21.5242 H       1  LIG   0.0807   0.1000 
34    H14      1.5292  -40.4423   20.1061 H       1  LIG   0.0733   0.1000 
@<TRIPOS>BOND
1     2     1     ar
2     3     2     1
3     4     2     ar
4     5     4     1
5     6     4     ar
6     7     6     ar
7     8     7     1
8     9     8     1
9     10    8     1
10    11    10    1
11    12    11    ar
12    13    12    1
13    14    12    ar
14    15    14    1
15    16    14    ar
16    17    16    1
17    18    16    ar
18    19    11    ar
19    19    18    ar
20    20    19    1
21    21    1     ar
22    21    7     ar
23    21    20    1
24    22    6     1
25    23    22    1
26    24    22    1
27    25    22    1
28    26    10    2
29    27    20    1
30    28    27    1
31    29    27    1
32    30    29    1
33    31    29    1
34    32    27    1
35    32    29    1
36    33    32    1
37    34    32    1
@<TRIPOS>SUBSTRUCTURE
1   LIG    1    
 
########## Name        : 1VRT.lig
########## Description : AM1BCC_CHARGES =  -0.0002 ORIGINAL_CHARGES =  -0.0000

@<TRIPOS>MOLECULE
1VRT.lig
34    37    1     0     0    
SMALL
USER_CHARGES
@<TRIPOS>ATOM
1     N1       4.0540  -36.9310   22.2210 N.ar    1  LIG  -0.6650  -0.6200 
2     C1       4.9660  -36.2380   22.9390 C.ar    1  LIG   0.3947   0.1600 
3     H1       6.0082  -36.2811   22.6707 H       1  LIG   0.0281   0.1500 
4     C2       4.6240  -35.4500   24.0360 C.ar    1  LIG  -0.2334  -0.1500 
5     H2       5.3884  -34.9151   24.5740 H       1  LIG   0.1480   0.1500 
6     C3       3.3050  -35.3690   24.4150 C.ar    1  LIG  -0.0698  -0.1435 
7     C4       2.3460  -36.0770   23.6860 C.ar    1  LIG  -0.0398   0.1170 
8     N2       0.9890  -36.0280   24.1030 N.am    1  LIG  -0.4596  -0.5470 
9     H3       0.7643  -35.9928   25.0860 H       1  LIG   0.3311   0.3700 
10    C5      -0.1450  -36.0180   23.4080 C.2     1  LIG   0.7361   0.5438 
11    C6      -0.1190  -36.0770   21.8860 C.ar    1  LIG  -0.2550   0.0862 
12    C7      -1.1230  -35.3990   21.1890 C.ar    1  LIG  -0.0321  -0.1500 
13    H4      -1.7552  -34.6955   21.7041 H       1  LIG   0.1623   0.1500 
14    C8      -1.2960  -35.6300   19.8690 C.ar    1  LIG  -0.2723  -0.1500 
15    H5      -2.0662  -35.1073   19.3273 H       1  LIG   0.1522   0.1500 
16    C9      -0.4670  -36.5450   19.2400 C.ar    1  LIG   0.4373   0.1600 
17    H6      -0.5947  -36.7554   18.1915 H       1  LIG   0.0280   0.1500 
18    N3       0.5220  -37.2120   19.8740 N.ar    1  LIG  -0.6893  -0.6200 
19    C10      0.7040  -36.9790   21.1800 C.ar    1  LIG   0.6480   0.4100 
20    N4       1.7670  -37.6730   21.8260 N.pl3   1  LIG  -0.6924  -0.3690 
21    C11      2.7540  -36.8570   22.5840 C.ar    1  LIG   0.5805   0.4100 
22    C12      2.9040  -34.5090   25.6010 C.3     1  LIG  -0.0620   0.1435 
23    H7       2.2235  -33.7630   25.2820 H       1  LIG   0.0570   0.0000 
24    H8       2.4436  -35.1154   26.3371 H       1  LIG   0.0495   0.0000 
25    H9       3.7654  -34.0491   26.0108 H       1  LIG   0.0519   0.0000 
26    O1      -1.2400  -35.9060   23.9770 O.2     1  LIG  -0.6361  -0.5700 
27    C13      2.3440  -38.7570   21.0360 C.3     1  LIG   0.1354   0.0690 
28    H10      3.1238  -38.3754   20.4296 H       1  LIG   0.0981   0.1000 
29    C14      2.9380  -39.8900   21.8010 C.3     1  LIG  -0.1181  -0.2000 
30    H11      3.8890  -40.1268   21.3997 H       1  LIG   0.0732   0.1000 
31    H12      3.0430  -39.6129   22.8177 H       1  LIG   0.0789   0.1000 
32    C15      1.6390  -40.0610   21.0880 C.3     1  LIG  -0.1196  -0.2000 
33    H13      0.6832  -39.9283   21.5242 H       1  LIG   0.0807   0.1000 
34    H14      1.5292  -40.4423   20.1061 H       1  LIG   0.0733   0.1000 
@<TRIPOS>BOND
1     2     1     ar
2     3     2     1
3     4     2     ar
4     5     4     1
5     6     4     ar
6     7     6     ar
7     8     7     1
8     9     8     1
9     10    8     1
10    11    10    1
11    12    11    ar
12    13    12    1
13    14    12    ar
14    15    14    1
15    16    14    ar
16    17    16    1
17    18    16    ar
18    19    11    ar
19    19    18    ar
20    20    19    1
21    21    1     ar
22    21    7     ar
23    21    20    1
24    22    6     1
25    23    22    1
26    24    22    1
27    25    22    1
28    26    10    2
29    27    20    1
30    28    27    1
31    29    27    1
32    30    29    1
33    31    29    1
34    32    27    1
35    32    29    1
36    33    32    1
37    34    32    1
@<TRIPOS>SUBSTRUCTURE
1   LIG    1    
 
########## Name        : 1VRT.lig
########## Description : AM1BCC_CHARGES =  -0.0002 ORIGINAL_CHARGES =  -0.0000

@<TRIPOS>MOLECULE
1VRT.lig
34    37    1     0     0    
SMALL
USER_CHARGES
@<TRIPOS>ATOM
1     N1       4.0540  -36.9310   22.2210 N.ar    1  LIG  -0.6650  -0.6200 
2     C1       4.9660  -36.2380   22.9390 C.ar    1  LIG   0.3947   0.1600 
3     H1       6.0082  -36.2811   22.6707 H       1  LIG   0.0281   0.1500 
4     C2       4.6240  -35.4500   24.0360 C.ar    1  LIG  -0.2334  -0.1500 
5     H2       5.3884  -34.9151   24.5740 H       1  LIG   0.1480   0.1500 
6     C3       3.3050  -35.3690   24.4150 C.ar    1  LIG  -0.0698  -0.1435 
7     C4       2.3460  -36.0770   23.6860 C.ar    1  LIG  -0.0398   0.1170 
8     N2       0.9890  -36.0280   24.1030 N.am    1  LIG  -0.4596  -0.5470 
9     H3       0.7643  -35.9928   25.0860 H       1  LIG   0.3311   0.3700 
10    C5      -0.1450  -36.0180   23.4080 C.2     1  LIG   0.7361   0.5438 
11    C6      -0.1190  -36.0770   21.8860 C.ar    1  LIG  -0.2550   0.0862 
12    C7      -1.1230  -35.3990   21.1890 C.ar    1  LIG  -0.0321  -0.1500 
13    H4      -1.7552  -34.6955   21.7041 H       1  LIG   0.1623   0.1500 
14    C8      -1.2960  -35.6300   19.8690 C.ar    1  LIG  -0.2723  -0.1500 
15    H5      -2.0662  -35.1073   19.3273 H       1  LIG   0.1522   0.1500 
16    C9      -0.4670  -36.5450   19.2400 C.ar    1  LIG   0.4373   0.1600 
17    H6      -0.5947  -36.7554   18.1915 H       1  LIG   0.0280   0.1500 
18    N3       0.5220  -37.2120   19.8740 N.ar    1  LIG  -0.6893  -0.6200 
19    C10      0.7040  -36.9790   21.1800 C.ar    1  LIG   0.6480   0.4100 
20    N4       1.7670  -37.6730   21.8260 N.pl3   1  LIG  -0.6924  -0.3690 
21    C11      2.7540  -36.8570   22.5840 C.ar    1  LIG   0.5805   0.4100 
22    C12      2.9040  -34.5090   25.6010 C.3     1  LIG  -0.0620   0.1435 
23    H7       2.2235  -33.7630   25.2820 H       1  LIG   0.0570   0.0000 
24    H8       2.4436  -35.1154   26.3371 H       1  LIG   0.0495   0.0000 
25    H9       3.7654  -34.0491   26.0108 H       1  LIG   0.0519   0.0000 
26    O1      -1.2400  -35.9060   23.9770 O.2     1  LIG  -0.6361  -0.5700 
27    C13      2.3440  -38.7570   21.0360 C.3     1  LIG   0.1354   0.0690 
28    H10      3.1238  -38.3754   20.4296 H       1  LIG   0.0981   0.1000 
29    C14      2.9380  -39.8900   21.8010 C.3     1  LIG  -0.1181  -0.2000 
30    H11      3.8890  -40.1268   21.3997 H       1  LIG   0.0732   0.1000 
31    H12      3.0430  -39.6129   22.8177 H       1  LIG   0.0789   0.1000 
32    C15      1.6390  -40.0610   21.0880 C.3     1  LIG  -0.1196  -0.2000 
33    H13      0.6832  -39.9283   21.5242 H       1  LIG   0.0807   0.1000 
34    H14      1.5292  -40.4423   20.1061 H       1  LIG   0.0733   0.1000 
@<TRIPOS>BOND
1     2     1     ar
2     3     2     1
3     4     2     ar
4     5     4     1
5     6     4     ar
6     7     6     ar
7     8     7     1
8     9     8     1
9     10    8     1
10    11    10    1
11    12    11    ar
12    13    12    1
13    14    12    ar
14    15    14    1
15    16    14    ar
16    17    16    1
17    18    16    ar
18    19    11    ar
19    19    18    ar
20    20    19    1
21    21    1     ar
22    21    7     ar
23    21    20    1
24    22    6     1
25    23    22    1
26    24    22    1
27    25    22    1
28    26    10    2
29    27    20    1
30    28    27    1
31    29    27    1
32    30    29    1
33    31    29    1
34    32    27    1
35    32    29    1
36    33    32    1
37    34    32    1
@<TRIPOS>SUBSTRUCTURE
1   LIG    1    
 
########## Name        : 1VRT.lig
########## Description : AM1BCC_CHARGES =  -0.0002 ORIGINAL_CHARGES =  -0.0000

@<TRIPOS>MOLECULE
1VRT.lig
34    37    1     0     0    
SMALL
USER_CHARGES
@<TRIPOS>ATOM
1     N1       4.0540  -36.9310   22.2210 N.ar    1  LIG  -0.6650  -0.6200 
2     C1       4.9660  -36.2380   22.9390 C.ar    1  LIG   0.3947   0.1600 
3     H1       6.0082  -36.2811   22.6707 H       1  LIG   0.0281   0.1500 
4     C2       4.6240  -35.4500   24.0360 C.ar    1  LIG  -0.2334  -0.1500 
5     H2       5.3884  -34.9151   24.5740 H       1  LIG   0.1480   0.1500 
6     C3       3.3050  -35.3690   24.4150 C.ar    1  LIG  -0.0698  -0.1435 
7     C4       2.3460  -36.0770   23.6860 C.ar    1  LIG  -0.0398   0.1170 
8     N2       0.9890  -36.0280   24.1030 N.am    1  LIG  -0.4596  -0.5470 
9     H3       0.7643  -35.9928   25.0860 H       1  LIG   0.3311   0.3700 
10    C5      -0.1450  -36.0180   23.4080 C.2     1  LIG   0.7361   0.5438 
11    C6      -0.1190  -36.0770   21.8860 C.ar    1  LIG  -0.2550   0.0862 
12    C7      -1.1230  -35.3990   21.1890 C.ar    1  LIG  -0.0321  -0.1500 
13    H4      -1.7552  -34.6955   21.7041 H       1  LIG   0.1623   0.1500 
14    C8      -1.2960  -35.6300   19.8690 C.ar    1  LIG  -0.2723  -0.1500 
15    H5      -2.0662  -35.1073   19.3273 H       1  LIG   0.1522   0.1500 
16    C9      -0.4670  -36.5450   19.2400 C.ar    1  LIG   0.4373   0.1600 
17    H6      -0.5947  -36.7554   18.1915 H       1  LIG   0.0280   0.1500 
18    N3       0.5220  -37.2120   19.8740 N.ar    1  LIG  -0.6893  -0.6200 
19    C10      0.7040  -36.9790   21.1800 C.ar    1  LIG   0.6480   0.4100 
20    N4       1.7670  -37.6730   21.8260 N.pl3   1  LIG  -0.6924  -0.3690 
21    C11      2.7540  -36.8570   22.5840 C.ar    1  LIG   0.5805   0.4100 
22    C12      2.9040  -34.5090   25.6010 C.3     1  LIG  -0.0620   0.1435 
23    H7       2.2235  -33.7630   25.2820 H       1  LIG   0.0570   0.0000 
24    H8       2.4436  -35.1154   26.3371 H       1  LIG   0.0495   0.0000 
25    H9       3.7654  -34.0491   26.0108 H       1  LIG   0.0519   0.0000 
26    O1      -1.2400  -35.9060   23.9770 O.2     1  LIG  -0.6361  -0.5700 
27    C13      2.3440  -38.7570   21.0360 C.3     1  LIG   0.1354   0.0690 
28    H10      3.1238  -38.3754   20.4296 H       1  LIG   0.0981   0.1000 
29    C14      2.9380  -39.8900   21.8010 C.3     1  LIG  -0.1181  -0.2000 
30    H11      3.8890  -40.1268   21.3997 H       1  LIG   0.0732   0.1000 
31    H12      3.0430  -39.6129   22.8177 H       1  LIG   0.0789   0.1000 
32    C15      1.6390  -40.0610   21.0880 C.3     1  LIG  -0.1196  -0.2000 
33    H13      0.6832  -39.9283   21.5242 H       1  LIG   0.0807   0.1000 
34    H14      1.5292  -40.4423   20.1061 H       1  LIG   0.0733   0.1000 
@<TRIPOS>BOND
1     2     1     ar
2     3     2     1
3     4     2     ar
4     5     4     1
5     6     4     ar
6     7     6     ar
7     8     7     1
8     9     8     1
9     10    8     1
10    11    10    1
11    12    11    ar
12    13    12    1
13    14    12    ar
14    15    14    1
15    16    14    ar
16    17    16    1
17    18    16    ar
18    19    11    ar
19    19    18    ar
20    20    19    1
21    21    1     ar
22    21    7     ar
23    21    20    1
24    22    6     1
25    23    22    1
26    24    22    1
27    25    22    1
28    26    10    2
29    27    20    1
30    28    27    1
31    29    27    1
32    30    29    1
33    31    29    1
34    32    27    1
35    32    29    1
36    33    32    1
37    34    32    1
@<TRIPOS>SUBSTRUCTURE
1   LIG    1    
 
########## Name        : 1VRT.lig
########## Description : AM1BCC_CHARGES =  -0.0002 ORIGINAL_CHARGES =  -0.0000

@<TRIPOS>MOLECULE
1VRT.lig
34    37    1     0     0    
SMALL
USER_CHARGES
@<TRIPOS>ATOM
1     N1       4.0540  -36.9310   22.2210 N.ar    1  LIG  -0.6650  -0.6200 
2     C1       4.9660  -36.2380   22.9390 C.ar    1  LIG   0.3947   0.1600 
3     H1       6.0082  -36.2811   22.6707 H       1  LIG   0.0281   0.1500 
4     C2       4.6240  -35.4500   24.0360 C.ar    1  LIG  -0.2334  -0.1500 
5     H2       5.3884  -34.9151   24.5740 H       1  LIG   0.1480   0.1500 
6     C3       3.3050  -35.3690   24.4150 C.ar    1  LIG  -0.0698  -0.1435 
7     C4       2.3460  -36.0770   23.6860 C.ar    1  LIG  -0.0398   0.1170 
8     N2       0.9890  -36.0280   24.1030 N.am    1  LIG  -0.4596  -0.5470 
9     H3       0.7643  -35.9928   25.0860 H       1  LIG   0.3311   0.3700 
10    C5      -0.1450  -36.0180   23.4080 C.2     1  LIG   0.7361   0.5438 
11    C6      -0.1190  -36.0770   21.8860 C.ar    1  LIG  -0.2550   0.0862 
12    C7      -1.1230  -35.3990   21.1890 C.ar    1  LIG  -0.0321  -0.1500 
13    H4      -1.7552  -34.6955   21.7041 H       1  LIG   0.1623   0.1500 
14    C8      -1.2960  -35.6300   19.8690 C.ar    1  LIG  -0.2723  -0.1500 
15    H5      -2.0662  -35.1073   19.3273 H       1  LIG   0.1522   0.1500 
16    C9      -0.4670  -36.5450   19.2400 C.ar    1  LIG   0.4373   0.1600 
17    H6      -0.5947  -36.7554   18.1915 H       1  LIG   0.0280   0.1500 
18    N3       0.5220  -37.2120   19.8740 N.ar    1  LIG  -0.6893  -0.6200 
19    C10      0.7040  -36.9790   21.1800 C.ar    1  LIG   0.6480   0.4100 
20    N4       1.7670  -37.6730   21.8260 N.pl3   1  LIG  -0.6924  -0.3690 
21    C11      2.7540  -36.8570   22.5840 C.ar    1  LIG   0.5805   0.4100 
22    C12      2.9040  -34.5090   25.6010 C.3     1  LIG  -0.0620   0.1435 
23    H7       2.2235  -33.7630   25.2820 H       1  LIG   0.0570   0.0000 
24    H8       2.4436  -35.1154   26.3371 H       1  LIG   0.0495   0.0000 
25    H9       3.7654  -34.0491   26.0108 H       1  LIG   0.0519   0.0000 
26    O1      -1.2400  -35.9060   23.9770 O.2     1  LIG  -0.6361  -0.5700 
27    C13      2.3440  -38.7570   21.0360 C.3     1  LIG   0.1354   0.0690 
28    H10      3.1238  -38.3754   20.4296 H       1  LIG   0.0981   0.1000 
29    C14      2.9380  -39.8900   21.8010 C.3     1  LIG  -0.1181  -0.2000 
30    H11      3.8890  -40.1268   21.3997 H       1  LIG   0.0732   0.1000 
31    H12      3.0430  -39.6129   22.8177 H       1  LIG   0.0789   0.1000 
32    C15      1.6390  -40.0610   21.0880 C.3     1  LIG  -0.1196  -0.2000 
33    H13      0.6832  -39.9283   21.5242 H       1  LIG   0.0807   0.1000 
34    H14      1.5292  -40.4423   20.1061 H       1  LIG   0.0733   0.1000 
@<TRIPOS>BOND
1     2     1     ar
2     3     2     1
3     4     2     ar
4     5     4     1
5     6     4     ar
6     7     6     ar
7     8     7     1
8     9     8     1
9     10    8     1
10    11    10    1
11    12    11    ar
12    13    12    1
13    14    12    ar
14    15    14    1
15    16    14    ar
16    17    16    1
17    18    16    ar
18    19    11    ar
19    19    18    ar
20    20    19    1
21    21    1     ar
22    21    7     ar
23    21    20    1
24    22    6     1
25    23    22    1
26    24    22    1
27    25    22    1
28    26    10    2
29    27    20    1
30    28    27    1
31    29    27    1
32    30    29    1
33    31    29    1
34    32    27    1
35    32    29    1
36    33    32    1
37    34    32    1
@<TRIPOS>SUBSTRUCTURE
1   LIG    1    
 
########## Name        : 1VRT.lig
########## Description : AM1BCC_CHARGES =  -0.0002 ORIGINAL_CHARGES =  -0.0000

@<TRIPOS>MOLECULE
1VRT.lig
34    37    1     0     0    
SMALL
USER_CHARGES
@<TRIPOS>ATOM
1     N1       4.0540  -36.9310   22.2210 N.ar    1  LIG  -0.6650  -0.6200 
2     C1       4.9660  -36.2380   22.9390 C.ar    1  LIG   0.3947   0.1600 
3     H1       6.0082  -36.2811   22.6707 H       1  LIG   0.0281   0.1500 
4     C2       4.6240  -35.4500   24.0360 C.ar    1  LIG  -0.2334  -0.1500 
5     H2       5.3884  -34.9151   24.5740 H       1  LIG   0.1480   0.1500 
6     C3       3.3050  -35.3690   24.4150 C.ar    1  LIG  -0.0698  -0.1435 
7     C4       2.3460  -36.0770   23.6860 C.ar    1  LIG  -0.0398   0.1170 
8     N2       0.9890  -36.0280   24.1030 N.am    1  LIG  -0.4596  -0.5470 
9     H3       0.7643  -35.9928   25.0860 H       1  LIG   0.3311   0.3700 
10    C5      -0.1450  -36.0180   23.4080 C.2     1  LIG   0.7361   0.5438 
11    C6      -0.1190  -36.0770   21.8860 C.ar    1  LIG  -0.2550   0.0862 
12    C7      -1.1230  -35.3990   21.1890 C.ar    1  LIG  -0.0321  -0.1500 
13    H4      -1.7552  -34.6955   21.7041 H       1  LIG   0.1623   0.1500 
14    C8      -1.2960  -35.6300   19.8690 C.ar    1  LIG  -0.2723  -0.1500 
15    H5      -2.0662  -35.1073   19.3273 H       1  LIG   0.1522   0.1500 
16    C9      -0.4670  -36.5450   19.2400 C.ar    1  LIG   0.4373   0.1600 
17    H6      -0.5947  -36.7554   18.1915 H       1  LIG   0.0280   0.1500 
18    N3       0.5220  -37.2120   19.8740 N.ar    1  LIG  -0.6893  -0.6200 
19    C10      0.7040  -36.9790   21.1800 C.ar    1  LIG   0.6480   0.4100 
20    N4       1.7670  -37.6730   21.8260 N.pl3   1  LIG  -0.6924  -0.3690 
21    C11      2.7540  -36.8570   22.5840 C.ar    1  LIG   0.5805   0.4100 
22    C12      2.9040  -34.5090   25.6010 C.3     1  LIG  -0.0620   0.1435 
23    H7       2.2235  -33.7630   25.2820 H       1  LIG   0.0570   0.0000 
24    H8       2.4436  -35.1154   26.3371 H       1  LIG   0.0495   0.0000 
25    H9       3.7654  -34.0491   26.0108 H       1  LIG   0.0519   0.0000 
26    O1      -1.2400  -35.9060   23.9770 O.2     1  LIG  -0.6361  -0.5700 
27    C13      2.3440  -38.7570   21.0360 C.3     1  LIG   0.1354   0.0690 
28    H10      3.1238  -38.3754   20.4296 H       1  LIG   0.0981   0.1000 
29    C14      2.9380  -39.8900   21.8010 C.3     1  LIG  -0.1181  -0.2000 
30    H11      3.8890  -40.1268   21.3997 H       1  LIG   0.0732   0.1000 
31    H12      3.0430  -39.6129   22.8177 H       1  LIG   0.0789   0.1000 
32    C15      1.6390  -40.0610   21.0880 C.3     1  LIG  -0.1196  -0.2000 
33    H13      0.6832  -39.9283   21.5242 H       1  LIG   0.0807   0.1000 
34    H14      1.5292  -40.4423   20.1061 H       1  LIG   0.0733   0.1000 
@<TRIPOS>BOND
1     2     1     ar
2     3     2     1
3     4     2     ar
4     5     4     1
5     6     4     ar
6     7     6     ar
7     8     7     1
8     9     8     1
9     10    8     1
10    11    10    1
11    12    11    ar
12    13    12    1
13    14    12    ar
14    15    14    1
15    16    14    ar
16    17    16    1
17    18    16    ar
18    19    11    ar
19    19    18    ar
20    20    19    1
21    21    1     ar
22    21    7     ar
23    21    20    1
24    22    6     1
25    23    22    1
26    24    22    1
27    25    22    1
28    26    10    2
29    27    20    1
30    28    27    1
31    29    27    1
32    30    29    1
33    31    29    1
34    32    27    1
35    32    29    1
36    33    32    1
37    34    32    1
@<TRIPOS>SUBSTRUCTURE
1   LIG    1    
 
########## Name        : 1VRT.lig
########## Description : AM1BCC_CHARGES =  -0.0002 ORIGINAL_CHARGES =  -0.0000

@<TRIPOS>MOLECULE
1VRT.lig
34    37    1     0     0    
SMALL
USER_CHARGES
@<TRIPOS>ATOM
1     N1       4.0540  -36.9310   22.2210 N.ar    1  LIG  -0.6650  -0.6200 
2     C1       4.9660  -36.2380   22.9390 C.ar    1  LIG   0.3947   0.1600 
3     H1       6.0082  -36.2811   22.6707 H       1  LIG   0.0281   0.1500 
4     C2       4.6240  -35.4500   24.0360 C.ar    1  LIG  -0.2334  -0.1500 
5     H2       5.3884  -34.9151   24.5740 H       1  LIG   0.1480   0.1500 
6     C3       3.3050  -35.3690   24.4150 C.ar    1  LIG  -0.0698  -0.1435 
7     C4       2.3460  -36.0770   23.6860 C.ar    1  LIG  -0.0398   0.1170 
8     N2       0.9890  -36.0280   24.1030 N.am    1  LIG  -0.4596  -0.5470 
9     H3       0.7643  -35.9928   25.0860 H       1  LIG   0.3311   0.3700 
10    C5      -0.1450  -36.0180   23.4080 C.2     1  LIG   0.7361   0.5438 
11    C6      -0.1190  -36.0770   21.8860 C.ar    1  LIG  -0.2550   0.0862 
12    C7      -1.1230  -35.3990   21.1890 C.ar    1  LIG  -0.0321  -0.1500 
13    H4      -1.7552  -34.6955   21.7041 H       1  LIG   0.1623   0.1500 
14    C8      -1.2960  -35.6300   19.8690 C.ar    1  LIG  -0.2723  -0.1500 
15    H5      -2.0662  -35.1073   19.3273 H       1  LIG   0.1522   0.1500 
16    C9      -0.4670  -36.5450   19.2400 C.ar    1  LIG   0.4373   0.1600 
17    H6      -0.5947  -36.7554   18.1915 H       1  LIG   0.0280   0.1500 
18    N3       0.5220  -37.2120   19.8740 N.ar    1  LIG  -0.6893  -0.6200 
19    C10      0.7040  -36.9790   21.1800 C.ar    1  LIG   0.6480   0.4100 
20    N4       1.7670  -37.6730   21.8260 N.pl3   1  LIG  -0.6924  -0.3690 
21    C11      2.7540  -36.8570   22.5840 C.ar    1  LIG   0.5805   0.4100 
22    C12      2.9040  -34.5090   25.6010 C.3     1  LIG  -0.0620   0.1435 
23    H7       2.2235  -33.7630   25.2820 H       1  LIG   0.0570   0.0000 
24    H8       2.4436  -35.1154   26.3371 H       1  LIG   0.0495   0.0000 
25    H9       3.7654  -34.0491   26.0108 H       1  LIG   0.0519   0.0000 
26    O1      -1.2400  -35.9060   23.9770 O.2     1  LIG  -0.6361  -0.5700 
27    C13      2.3440  -38.7570   21.0360 C.3     1  LIG   0.1354   0.0690 
28    H10      3.1238  -38.3754   20.4296 H       1  LIG   0.0981   0.1000 
29    C14      2.9380  -39.8900   21.8010 C.3     1  LIG  -0.1181  -0.2000 
30    H11      3.8890  -40.1268   21.3997 H       1  LIG   0.0732   0.1000 
31    H12      3.0430  -39.6129   22.8177 H       1  LIG   0.0789   0.1000 
32    C15      1.6390  -40.0610   21.0880 C.3     1  LIG  -0.1196  -0.2000 
33    H13      0.6832  -39.9283   21.5242 H       1  LIG   0.0807   0.1000 
34    H14      1.5292  -40.4423   20.1061 H       1  LIG   0.0733   0.1000 
@<TRIPOS>BOND
1     2     1     ar
2     3     2     1
3     4     2     ar
4     5     4     1
5     6     4     ar
6     7     6     ar
7     8     7     1
8     9     8     1
9     10    8     1
10    11    10    1
11    12    11    ar
12    13    12    1
13    14    12    ar
14    15    14    1
15    16    14    ar
16    17    16    1
17    18    16    ar
18    19    11    ar
19    19    18    ar
20    20    19    1
21    21    1     ar
22    21    7     ar
23    21    20    1
24    22    6     1
25    23    22    1
26    24    22    1
27    25    22    1
28    26    10    2
29    27    20    1
30    28    27    1
31    29    27    1
32    30    29    1
33    31    29    1
34    32    27    1
35    32    29    1
36    33    32    1
37    34    32    1
@<TRIPOS>SUBSTRUCTURE
1   LIG    1    
 
########## Name        : 1VRT.lig
########## Description : AM1BCC_CHARGES =  -0.0002 ORIGINAL_CHARGES =  -0.0000

@<TRIPOS>MOLECULE
1VRT.lig
34    37    1     0     0    
SMALL
USER_CHARGES
@<TRIPOS>ATOM
1     N1       4.0540  -36.9310   22.2210 N.ar    1  LIG  -0.6650  -0.6200 
2     C1       4.9660  -36.2380   22.9390 C.ar    1  LIG   0.3947   0.1600 
3     H1       6.0082  -36.2811   22.6707 H       1  LIG   0.0281   0.1500 
4     C2       4.6240  -35.4500   24.0360 C.ar    1  LIG  -0.2334  -0.1500 
5     H2       5.3884  -34.9151   24.5740 H       1  LIG   0.1480   0.1500 
6     C3       3.3050  -35.3690   24.4150 C.ar    1  LIG  -0.0698  -0.1435 
7     C4       2.3460  -36.0770   23.6860 C.ar    1  LIG  -0.0398   0.1170 
8     N2       0.9890  -36.0280   24.1030 N.am    1  LIG  -0.4596  -0.5470 
9     H3       0.7643  -35.9928   25.0860 H       1  LIG   0.3311   0.3700 
10    C5      -0.1450  -36.0180   23.4080 C.2     1  LIG   0.7361   0.5438 
11    C6      -0.1190  -36.0770   21.8860 C.ar    1  LIG  -0.2550   0.0862 
12    C7      -1.1230  -35.3990   21.1890 C.ar    1  LIG  -0.0321  -0.1500 
13    H4      -1.7552  -34.6955   21.7041 H       1  LIG   0.1623   0.1500 
14    C8      -1.2960  -35.6300   19.8690 C.ar    1  LIG  -0.2723  -0.1500 
15    H5      -2.0662  -35.1073   19.3273 H       1  LIG   0.1522   0.1500 
16    C9      -0.4670  -36.5450   19.2400 C.ar    1  LIG   0.4373   0.1600 
17    H6      -0.5947  -36.7554   18.1915 H       1  LIG   0.0280   0.1500 
18    N3       0.5220  -37.2120   19.8740 N.ar    1  LIG  -0.6893  -0.6200 
19    C10      0.7040  -36.9790   21.1800 C.ar    1  LIG   0.6480   0.4100 
20    N4       1.7670  -37.6730   21.8260 N.pl3   1  LIG  -0.6924  -0.3690 
21    C11      2.7540  -36.8570   22.5840 C.ar    1  LIG   0.5805   0.4100 
22    C12      2.9040  -34.5090   25.6010 C.3     1  LIG  -0.0620   0.1435 
23    H7       2.2235  -33.7630   25.2820 H       1  LIG   0.0570   0.0000 
24    H8       2.4436  -35.1154   26.3371 H       1  LIG   0.0495   0.0000 
25    H9       3.7654  -34.0491   26.0108 H       1  LIG   0.0519   0.0000 
26    O1      -1.2400  -35.9060   23.9770 O.2     1  LIG  -0.6361  -0.5700 
27    C13      2.3440  -38.7570   21.0360 C.3     1  LIG   0.1354   0.0690 
28    H10      3.1238  -38.3754   20.4296 H       1  LIG   0.0981   0.1000 
29    C14      2.9380  -39.8900   21.8010 C.3     1  LIG  -0.1181  -0.2000 
30    H11      3.8890  -40.1268   21.3997 H       1  LIG   0.0732   0.1000 
31    H12      3.0430  -39.6129   22.8177 H       1  LIG   0.0789   0.1000 
32    C15      1.6390  -40.0610   21.0880 C.3     1  LIG  -0.1196  -0.2000 
33    H13      0.6832  -39.9283   21.5242 H       1  LIG   0.0807   0.1000 
34    H14      1.5292  -40.4423   20.1061 H       1  LIG   0.0733   0.1000 
@<TRIPOS>BOND
1     2     1     ar
2     3     2     1
3     4     2     ar
4     5     4     1
5     6     4     ar
6     7     6     ar
7     8     7     1
8     9     8     1
9     10    8     1
10    11    10    1
11    12    11    ar
12    13    12    1
13    14    12    ar
14    15    14    1
15    16    14    ar
16    17    16    1
17    18    16    ar
18    19    11    ar
19    19    18    ar
20    20    19    1
21    21    1     ar
22    21    7     ar
23    21    20    1
24    22    6     1
25    23    22    1
26    24    22    1
27    25    22    1
28    26    10    2
29    27    20    1
30    28    27    1
31    29    27    1
32    30    29    1
33    31    29    1
34    32    27    1
35    32    29    1
36    33    32    1
37    34    32    1
@<TRIPOS>SUBSTRUCTURE
1   LIG    1    
 
########## Name        : 1VRT.lig
########## Description : AM1BCC_CHARGES =  -0.0002 ORIGINAL_CHARGES =  -0.0000

@<TRIPOS>MOLECULE
1VRT.lig
34    37    1     0     0    
SMALL
USER_CHARGES
@<TRIPOS>ATOM
1     N1       4.0540  -36.9310   22.2210 N.ar    1  LIG  -0.6650  -0.6200 
2     C1       4.9660  -36.2380   22.9390 C.ar    1  LIG   0.3947   0.1600 
3     H1       6.0082  -36.2811   22.6707 H       1  LIG   0.0281   0.1500 
4     C2       4.6240  -35.4500   24.0360 C.ar    1  LIG  -0.2334  -0.1500 
5     H2       5.3884  -34.9151   24.5740 H       1  LIG   0.1480   0.1500 
6     C3       3.3050  -35.3690   24.4150 C.ar    1  LIG  -0.0698  -0.1435 
7     C4       2.3460  -36.0770   23.6860 C.ar    1  LIG  -0.0398   0.1170 
8     N2       0.9890  -36.0280   24.1030 N.am    1  LIG  -0.4596  -0.5470 
9     H3       0.7643  -35.9928   25.0860 H       1  LIG   0.3311   0.3700 
10    C5      -0.1450  -36.0180   23.4080 C.2     1  LIG   0.7361   0.5438 
11    C6      -0.1190  -36.0770   21.8860 C.ar    1  LIG  -0.2550   0.0862 
12    C7      -1.1230  -35.3990   21.1890 C.ar    1  LIG  -0.0321  -0.1500 
13    H4      -1.7552  -34.6955   21.7041 H       1  LIG   0.1623   0.1500 
14    C8      -1.2960  -35.6300   19.8690 C.ar    1  LIG  -0.2723  -0.1500 
15    H5      -2.0662  -35.1073   19.3273 H       1  LIG   0.1522   0.1500 
16    C9      -0.4670  -36.5450   19.2400 C.ar    1  LIG   0.4373   0.1600 
17    H6      -0.5947  -36.7554   18.1915 H       1  LIG   0.0280   0.1500 
18    N3       0.5220  -37.2120   19.8740 N.ar    1  LIG  -0.6893  -0.6200 
19    C10      0.7040  -36.9790   21.1800 C.ar    1  LIG   0.6480   0.4100 
20    N4       1.7670  -37.6730   21.8260 N.pl3   1  LIG  -0.6924  -0.3690 
21    C11      2.7540  -36.8570   22.5840 C.ar    1  LIG   0.5805   0.4100 
22    C12      2.9040  -34.5090   25.6010 C.3     1  LIG  -0.0620   0.1435 
23    H7       2.2235  -33.7630   25.2820 H       1  LIG   0.0570   0.0000 
24    H8       2.4436  -35.1154   26.3371 H       1  LIG   0.0495   0.0000 
25    H9       3.7654  -34.0491   26.0108 H       1  LIG   0.0519   0.0000 
26    O1      -1.2400  -35.9060   23.9770 O.2     1  LIG  -0.6361  -0.5700 
27    C13      2.3440  -38.7570   21.0360 C.3     1  LIG   0.1354   0.0690 
28    H10      3.1238  -38.3754   20.4296 H       1  LIG   0.0981   0.1000 
29    C14      2.9380  -39.8900   21.8010 C.3     1  LIG  -0.1181  -0.2000 
30    H11      3.8890  -40.1268   21.3997 H       1  LIG   0.0732   0.1000 
31    H12      3.0430  -39.6129   22.8177 H       1  LIG   0.0789   0.1000 
32    C15      1.6390  -40.0610   21.0880 C.3     1  LIG  -0.1196  -0.2000 
33    H13      0.6832  -39.9283   21.5242 H       1  LIG   0.0807   0.1000 
34    H14      1.5292  -40.4423   20.1061 H       1  LIG   0.0733   0.1000 
@<TRIPOS>BOND
1     2     1     ar
2     3     2     1
3     4     2     ar
4     5     4     1
5     6     4     ar
6     7     6     ar
7     8     7     1
8     9     8     1
9     10    8     1
10    11    10    1
11    12    11    ar
12    13    12    1
13    14    12    ar
14    15    14    1
15    16    14    ar
16    17    16    1
17    18    16    ar
18    19    11    ar
19    19    18    ar
20    20    19    1
21    21    1     ar
22    21    7     ar
23    21    20    1
24    22    6     1
25    23    22    1
26    24    22    1
27    25    22    1
28    26    10    2
29    27    20    1
30    28    27    1
31    29    27    1
32    30    29    1
33    31    29    1
34    32    27    1
35    32    29    1
36    33    32    1
37    34    32    1
@<TRIPOS>SUBSTRUCTURE
1   LIG    1    
 
########## Name        : 1VRT.lig
########## Description : AM1BCC_CHARGES =  -0.0002 ORIGINAL_CHARGES =  -0.0000

@<TRIPOS>MOLECULE
1VRT.lig
34    37    1     0     0    
SMALL
USER_CHARGES
@<TRIPOS>ATOM
1     N1       4.0540  -36.9310   22.2210 N.ar    1  LIG  -0.6650  -0.6200 
2     C1       4.9660  -36.2380   22.9390 C.ar    1  LIG   0.3947   0.1600 
3     H1       6.0082  -36.2811   22.6707 H       1  LIG   0.0281   0.1500 
4     C2       4.6240  -35.4500   24.0360 C.ar    1  LIG  -0.2334  -0.1500 
5     H2       5.3884  -34.9151   24.5740 H       1  LIG   0.1480   0.1500 
6     C3       3.3050  -35.3690   24.4150 C.ar    1  LIG  -0.0698  -0.1435 
7     C4       2.3460  -36.0770   23.6860 C.ar    1  LIG  -0.0398   0.1170 
8     N2       0.9890  -36.0280   24.1030 N.am    1  LIG  -0.4596  -0.5470 
9     H3       0.7643  -35.9928   25.0860 H       1  LIG   0.3311   0.3700 
10    C5      -0.1450  -36.0180   23.4080 C.2     1  LIG   0.7361   0.5438 
11    C6      -0.1190  -36.0770   21.8860 C.ar    1  LIG  -0.2550   0.0862 
12    C7      -1.1230  -35.3990   21.1890 C.ar    1  LIG  -0.0321  -0.1500 
13    H4      -1.7552  -34.6955   21.7041 H       1  LIG   0.1623   0.1500 
14    C8      -1.2960  -35.6300   19.8690 C.ar    1  LIG  -0.2723  -0.1500 
15    H5      -2.0662  -35.1073   19.3273 H       1  LIG   0.1522   0.1500 
16    C9      -0.4670  -36.5450   19.2400 C.ar    1  LIG   0.4373   0.1600 
17    H6      -0.5947  -36.7554   18.1915 H       1  LIG   0.0280   0.1500 
18    N3       0.5220  -37.2120   19.8740 N.ar    1  LIG  -0.6893  -0.6200 
19    C10      0.7040  -36.9790   21.1800 C.ar    1  LIG   0.6480   0.4100 
20    N4       1.7670  -37.6730   21.8260 N.pl3   1  LIG  -0.6924  -0.3690 
21    C11      2.7540  -36.8570   22.5840 C.ar    1  LIG   0.5805   0.4100 
22    C12      2.9040  -34.5090   25.6010 C.3     1  LIG  -0.0620   0.1435 
23    H7       2.2235  -33.7630   25.2820 H       1  LIG   0.0570   0.0000 
24    H8       2.4436  -35.1154   26.3371 H       1  LIG   0.0495   0.0000 
25    H9       3.7654  -34.0491   26.0108 H       1  LIG   0.0519   0.0000 
26    O1      -1.2400  -35.9060   23.9770 O.2     1  LIG  -0.6361  -0.5700 
27    C13      2.3440  -38.7570   21.0360 C.3     1  LIG   0.1354   0.0690 
28    H10      3.1238  -38.3754   20.4296 H       1  LIG   0.0981   0.1000 
29    C14      2.9380  -39.8900   21.8010 C.3     1  LIG  -0.1181  -0.2000 
30    H11      3.8890  -40.1268   21.3997 H       1  LIG   0.0732   0.1000 
31    H12      3.0430  -39.6129   22.8177 H       1  LIG   0.0789   0.1000 
32    C15      1.6390  -40.0610   21.0880 C.3     1  LIG  -0.1196  -0.2000 
33    H13      0.6832  -39.9283   21.5242 H       1  LIG   0.0807   0.1000 
34    H14      1.5292  -40.4423   20.1061 H       1  LIG   0.0733   0.1000 
@<TRIPOS>BOND
1     2     1     ar
2     3     2     1
3     4     2     ar
4     5     4     1
5     6     4     ar
6     7     6     ar
7     8     7     1
8     9     8     1
9     10    8     1
10    11    10    1
11    12    11    ar
12    13    12    1
13    14    12    ar
14    15    14    1
15    16    14    ar
16    17    16    1
17    18    16    ar
18    19    11    ar
19    19    18    ar
20    20    19    1
21    21    1     ar
22    21    7     ar
23    21    20    1
24    22    6     1
25    23    22    1
26    24    22    1
27    25    22    1
28    26    10    2
29    27    20    1
30    28    27    1
31    29    27    1
32    30    29    1
33    31    29    1
34    32    27    1
35    32    29    1
36    33    32    1
37    34    32    1
@<TRIPOS>SUBSTRUCTURE
1   LIG    1    
 
########## Name        : 1VRT.lig
########## Description : AM1BCC_CHARGES =  -0.0002 ORIGINAL_CHARGES =  -0.0000

@<TRIPOS>MOLECULE
1VRT.lig
34    37    1     0     0    
SMALL
USER_CHARGES
@<TRIPOS>ATOM
1     N1       4.0540  -36.9310   22.2210 N.ar    1  LIG  -0.6650  -0.6200 
2     C1       4.9660  -36.2380   22.9390 C.ar    1  LIG   0.3947   0.1600 
3     H1       6.0082  -36.2811   22.6707 H       1  LIG   0.0281   0.1500 
4     C2       4.6240  -35.4500   24.0360 C.ar    1  LIG  -0.2334  -0.1500 
5     H2       5.3884  -34.9151   24.5740 H       1  LIG   0.1480   0.1500 
6     C3       3.3050  -35.3690   24.4150 C.ar    1  LIG  -0.0698  -0.1435 
7     C4       2.3460  -36.0770   23.6860 C.ar    1  LIG  -0.0398   0.1170 
8     N2       0.9890  -36.0280   24.1030 N.am    1  LIG  -0.4596  -0.5470 
9     H3       0.7643  -35.9928   25.0860 H       1  LIG   0.3311   0.3700 
10    C5      -0.1450  -36.0180   23.4080 C.2     1  LIG   0.7361   0.5438 
11    C6      -0.1190  -36.0770   21.8860 C.ar    1  LIG  -0.2550   0.0862 
12    C7      -1.1230  -35.3990   21.1890 C.ar    1  LIG  -0.0321  -0.1500 
13    H4      -1.7552  -34.6955   21.7041 H       1  LIG   0.1623   0.1500 
14    C8      -1.2960  -35.6300   19.8690 C.ar    1  LIG  -0.2723  -0.1500 
15    H5      -2.0662  -35.1073   19.3273 H       1  LIG   0.1522   0.1500 
16    C9      -0.4670  -36.5450   19.2400 C.ar    1  LIG   0.4373   0.1600 
17    H6      -0.5947  -36.7554   18.1915 H       1  LIG   0.0280   0.1500 
18    N3       0.5220  -37.2120   19.8740 N.ar    1  LIG  -0.6893  -0.6200 
19    C10      0.7040  -36.9790   21.1800 C.ar    1  LIG   0.6480   0.4100 
20    N4       1.7670  -37.6730   21.8260 N.pl3   1  LIG  -0.6924  -0.3690 
21    C11      2.7540  -36.8570   22.5840 C.ar    1  LIG   0.5805   0.4100 
22    C12      2.9040  -34.5090   25.6010 C.3     1  LIG  -0.0620   0.1435 
23    H7       2.2235  -33.7630   25.2820 H       1  LIG   0.0570   0.0000 
24    H8       2.4436  -35.1154   26.3371 H       1  LIG   0.0495   0.0000 
25    H9       3.7654  -34.0491   26.0108 H       1  LIG   0.0519   0.0000 
26    O1      -1.2400  -35.9060   23.9770 O.2     1  LIG  -0.6361  -0.5700 
27    C13      2.3440  -38.7570   21.0360 C.3     1  LIG   0.1354   0.0690 
28    H10      3.1238  -38.3754   20.4296 H       1  LIG   0.0981   0.1000 
29    C14      2.9380  -39.8900   21.8010 C.3     1  LIG  -0.1181  -0.2000 
30    H11      3.8890  -40.1268   21.3997 H       1  LIG   0.0732   0.1000 
31    H12      3.0430  -39.6129   22.8177 H       1  LIG   0.0789   0.1000 
32    C15      1.6390  -40.0610   21.0880 C.3     1  LIG  -0.1196  -0.2000 
33    H13      0.6832  -39.9283   21.5242 H       1  LIG   0.0807   0.1000 
34    H14      1.5292  -40.4423   20.1061 H       1  LIG   0.0733   0.1000 
@<TRIPOS>BOND
1     2     1     ar
2     3     2     1
3     4     2     ar
4     5     4     1
5     6     4     ar
6     7     6     ar
7     8     7     1
8     9     8     1
9     10    8     1
10    11    10    1
11    12    11    ar
12    13    12    1
13    14    12    ar
14    15    14    1
15    16    14    ar
16    17    16    1
17    18    16    ar
18    19    11    ar
19    19    18    ar
20    20    19    1
21    21    1     ar
22    21    7     ar
23    21    20    1
24    22    6     1
25    23    22    1
26    24    22    1
27    25    22    1
28    26    10    2
29    27    20    1
30    28    27    1
31    29    27    1
32    30    29    1
33    31    29    1
34    32    27    1
35    32    29    1
36    33    32    1
37    34    32    1
@<TRIPOS>SUBSTRUCTURE
1   LIG    1    
 
########## Name        : 1VRT.lig
########## Description : AM1BCC_CHARGES =  -0.0002 ORIGINAL_CHARGES =  -0.0000

@<TRIPOS>MOLECULE
1VRT.lig
34    37    1     0     0    
SMALL
USER_CHARGES
@<TRIPOS>ATOM
1     N1       4.0540  -36.9310   22.2210 N.ar    1  LIG  -0.6650  -0.6200 
2     C1       4.9660  -36.2380   22.9390 C.ar    1  LIG   0.3947   0.1600 
3     H1       6.0082  -36.2811   22.6707 H       1  LIG   0.0281   0.1500 
4     C2       4.6240  -35.4500   24.0360 C.ar    1  LIG  -0.2334  -0.1500 
5     H2       5.3884  -34.9151   24.5740 H       1  LIG   0.1480   0.1500 
6     C3       3.3050  -35.3690   24.4150 C.ar    1  LIG  -0.0698  -0.1435 
7     C4       2.3460  -36.0770   23.6860 C.ar    1  LIG  -0.0398   0.1170 
8     N2       0.9890  -36.0280   24.1030 N.am    1  LIG  -0.4596  -0.5470 
9     H3       0.7643  -35.9928   25.0860 H       1  LIG   0.3311   0.3700 
10    C5      -0.1450  -36.0180   23.4080 C.2     1  LIG   0.7361   0.5438 
11    C6      -0.1190  -36.0770   21.8860 C.ar    1  LIG  -0.2550   0.0862 
12    C7      -1.1230  -35.3990   21.1890 C.ar    1  LIG  -0.0321  -0.1500 
13    H4      -1.7552  -34.6955   21.7041 H       1  LIG   0.1623   0.1500 
14    C8      -1.2960  -35.6300   19.8690 C.ar    1  LIG  -0.2723  -0.1500 
15    H5      -2.0662  -35.1073   19.3273 H       1  LIG   0.1522   0.1500 
16    C9      -0.4670  -36.5450   19.2400 C.ar    1  LIG   0.4373   0.1600 
17    H6      -0.5947  -36.7554   18.1915 H       1  LIG   0.0280   0.1500 
18    N3       0.5220  -37.2120   19.8740 N.ar    1  LIG  -0.6893  -0.6200 
19    C10      0.7040  -36.9790   21.1800 C.ar    1  LIG   0.6480   0.4100 
20    N4       1.7670  -37.6730   21.8260 N.pl3   1  LIG  -0.6924  -0.3690 
21    C11      2.7540  -36.8570   22.5840 C.ar    1  LIG   0.5805   0.4100 
22    C12      2.9040  -34.5090   25.6010 C.3     1  LIG  -0.0620   0.1435 
23    H7       2.2235  -33.7630   25.2820 H       1  LIG   0.0570   0.0000 
24    H8       2.4436  -35.1154   26.3371 H       1  LIG   0.0495   0.0000 
25    H9       3.7654  -34.0491   26.0108 H       1  LIG   0.0519   0.0000 
26    O1      -1.2400  -35.9060   23.9770 O.2     1  LIG  -0.6361  -0.5700 
27    C13      2.3440  -38.7570   21.0360 C.3     1  LIG   0.1354   0.0690 
28    H10      3.1238  -38.3754   20.4296 H       1  LIG   0.0981   0.1000 
29    C14      2.9380  -39.8900   21.8010 C.3     1  LIG  -0.1181  -0.2000 
30    H11      3.8890  -40.1268   21.3997 H       1  LIG   0.0732   0.1000 
31    H12      3.0430  -39.6129   22.8177 H       1  LIG   0.0789   0.1000 
32    C15      1.6390  -40.0610   21.0880 C.3     1  LIG  -0.1196  -0.2000 
33    H13      0.6832  -39.9283   21.5242 H       1  LIG   0.0807   0.1000 
34    H14      1.5292  -40.4423   20.1061 H       1  LIG   0.0733   0.1000 
@<TRIPOS>BOND
1     2     1     ar
2     3     2     1
3     4     2     ar
4     5     4     1
5     6     4     ar
6     7     6     ar
7     8     7     1
8     9     8     1
9     10    8     1
10    11    10    1
11    12    11    ar
12    13    12    1
13    14    12    ar
14    15    14    1
15    16    14    ar
16    17    16    1
17    18    16    ar
18    19    11    ar
19    19    18    ar
20    20    19    1
21    21    1     ar
22    21    7     ar
23    21    20    1
24    22    6     1
25    23    22    1
26    24    22    1
27    25    22    1
28    26    10    2
29    27    20    1
30    28    27    1
31    29    27    1
32    30    29    1
33    31    29    1
34    32    27    1
35    32    29    1
36    33    32    1
37    34    32    1
@<TRIPOS>SUBSTRUCTURE
1   LIG    1    
 
########## Name        : 1VRT.lig
########## Description : AM1BCC_CHARGES =  -0.0002 ORIGINAL_CHARGES =  -0.0000

@<TRIPOS>MOLECULE
1VRT.lig
34    37    1     0     0    
SMALL
USER_CHARGES
@<TRIPOS>ATOM
1     N1       4.0540  -36.9310   22.2210 N.ar    1  LIG  -0.6650  -0.6200 
2     C1       4.9660  -36.2380   22.9390 C.ar    1  LIG   0.3947   0.1600 
3     H1       6.0082  -36.2811   22.6707 H       1  LIG   0.0281   0.1500 
4     C2       4.6240  -35.4500   24.0360 C.ar    1  LIG  -0.2334  -0.1500 
5     H2       5.3884  -34.9151   24.5740 H       1  LIG   0.1480   0.1500 
6     C3       3.3050  -35.3690   24.4150 C.ar    1  LIG  -0.0698  -0.1435 
7     C4       2.3460  -36.0770   23.6860 C.ar    1  LIG  -0.0398   0.1170 
8     N2       0.9890  -36.0280   24.1030 N.am    1  LIG  -0.4596  -0.5470 
9     H3       0.7643  -35.9928   25.0860 H       1  LIG   0.3311   0.3700 
10    C5      -0.1450  -36.0180   23.4080 C.2     1  LIG   0.7361   0.5438 
11    C6      -0.1190  -36.0770   21.8860 C.ar    1  LIG  -0.2550   0.0862 
12    C7      -1.1230  -35.3990   21.1890 C.ar    1  LIG  -0.0321  -0.1500 
13    H4      -1.7552  -34.6955   21.7041 H       1  LIG   0.1623   0.1500 
14    C8      -1.2960  -35.6300   19.8690 C.ar    1  LIG  -0.2723  -0.1500 
15    H5      -2.0662  -35.1073   19.3273 H       1  LIG   0.1522   0.1500 
16    C9      -0.4670  -36.5450   19.2400 C.ar    1  LIG   0.4373   0.1600 
17    H6      -0.5947  -36.7554   18.1915 H       1  LIG   0.0280   0.1500 
18    N3       0.5220  -37.2120   19.8740 N.ar    1  LIG  -0.6893  -0.6200 
19    C10      0.7040  -36.9790   21.1800 C.ar    1  LIG   0.6480   0.4100 
20    N4       1.7670  -37.6730   21.8260 N.pl3   1  LIG  -0.6924  -0.3690 
21    C11      2.7540  -36.8570   22.5840 C.ar    1  LIG   0.5805   0.4100 
22    C12      2.9040  -34.5090   25.6010 C.3     1  LIG  -0.0620   0.1435 
23    H7       2.2235  -33.7630   25.2820 H       1  LIG   0.0570   0.0000 
24    H8       2.4436  -35.1154   26.3371 H       1  LIG   0.0495   0.0000 
25    H9       3.7654  -34.0491   26.0108 H       1  LIG   0.0519   0.0000 
26    O1      -1.2400  -35.9060   23.9770 O.2     1  LIG  -0.6361  -0.5700 
27    C13      2.3440  -38.7570   21.0360 C.3     1  LIG   0.1354   0.0690 
28    H10      3.1238  -38.3754   20.4296 H       1  LIG   0.0981   0.1000 
29    C14      2.9380  -39.8900   21.8010 C.3     1  LIG  -0.1181  -0.2000 
30    H11      3.8890  -40.1268   21.3997 H       1  LIG   0.0732   0.1000 
31    H12      3.0430  -39.6129   22.8177 H       1  LIG   0.0789   0.1000 
32    C15      1.6390  -40.0610   21.0880 C.3     1  LIG  -0.1196  -0.2000 
33    H13      0.6832  -39.9283   21.5242 H       1  LIG   0.0807   0.1000 
34    H14      1.5292  -40.4423   20.1061 H       1  LIG   0.0733   0.1000 
@<TRIPOS>BOND
1     2     1     ar
2     3     2     1
3     4     2     ar
4     5     4     1
5     6     4     ar
6     7     6     ar
7     8     7     1
8     9     8     1
9     10    8     1
10    11    10    1
11    12    11    ar
12    13    12    1
13    14    12    ar
14    15    14    1
15    16    14    ar
16    17    16    1
17    18    16    ar
18    19    11    ar
19    19    18    ar
20    20    19    1
21    21    1     ar
22    21    7     ar
23    21    20    1
24    22    6     1
25    23    22    1
26    24    22    1
27    25    22    1
28    26    10    2
29    27    20    1
30    28    27    1
31    29    27    1
32    30    29    1
33    31    29    1
34    32    27    1
35    32    29    1
36    33    32    1
37    34    32    1
@<TRIPOS>SUBSTRUCTURE
1   LIG    1    
 
########## Name        : 1VRT.lig
########## Description : AM1BCC_CHARGES =  -0.0002 ORIGINAL_CHARGES =  -0.0000

@<TRIPOS>MOLECULE
1VRT.lig
34    37    1     0     0    
SMALL
USER_CHARGES
@<TRIPOS>ATOM
1     N1       4.0540  -36.9310   22.2210 N.ar    1  LIG  -0.6650  -0.6200 
2     C1       4.9660  -36.2380   22.9390 C.ar    1  LIG   0.3947   0.1600 
3     H1       6.0082  -36.2811   22.6707 H       1  LIG   0.0281   0.1500 
4     C2       4.6240  -35.4500   24.0360 C.ar    1  LIG  -0.2334  -0.1500 
5     H2       5.3884  -34.9151   24.5740 H       1  LIG   0.1480   0.1500 
6     C3       3.3050  -35.3690   24.4150 C.ar    1  LIG  -0.0698  -0.1435 
7     C4       2.3460  -36.0770   23.6860 C.ar    1  LIG  -0.0398   0.1170 
8     N2       0.9890  -36.0280   24.1030 N.am    1  LIG  -0.4596  -0.5470 
9     H3       0.7643  -35.9928   25.0860 H       1  LIG   0.3311   0.3700 
10    C5      -0.1450  -36.0180   23.4080 C.2     1  LIG   0.7361   0.5438 
11    C6      -0.1190  -36.0770   21.8860 C.ar    1  LIG  -0.2550   0.0862 
12    C7      -1.1230  -35.3990   21.1890 C.ar    1  LIG  -0.0321  -0.1500 
13    H4      -1.7552  -34.6955   21.7041 H       1  LIG   0.1623   0.1500 
14    C8      -1.2960  -35.6300   19.8690 C.ar    1  LIG  -0.2723  -0.1500 
15    H5      -2.0662  -35.1073   19.3273 H       1  LIG   0.1522   0.1500 
16    C9      -0.4670  -36.5450   19.2400 C.ar    1  LIG   0.4373   0.1600 
17    H6      -0.5947  -36.7554   18.1915 H       1  LIG   0.0280   0.1500 
18    N3       0.5220  -37.2120   19.8740 N.ar    1  LIG  -0.6893  -0.6200 
19    C10      0.7040  -36.9790   21.1800 C.ar    1  LIG   0.6480   0.4100 
20    N4       1.7670  -37.6730   21.8260 N.pl3   1  LIG  -0.6924  -0.3690 
21    C11      2.7540  -36.8570   22.5840 C.ar    1  LIG   0.5805   0.4100 
22    C12      2.9040  -34.5090   25.6010 C.3     1  LIG  -0.0620   0.1435 
23    H7       2.2235  -33.7630   25.2820 H       1  LIG   0.0570   0.0000 
24    H8       2.4436  -35.1154   26.3371 H       1  LIG   0.0495   0.0000 
25    H9       3.7654  -34.0491   26.0108 H       1  LIG   0.0519   0.0000 
26    O1      -1.2400  -35.9060   23.9770 O.2     1  LIG  -0.6361  -0.5700 
27    C13      2.3440  -38.7570   21.0360 C.3     1  LIG   0.1354   0.0690 
28    H10      3.1238  -38.3754   20.4296 H       1  LIG   0.0981   0.1000 
29    C14      2.9380  -39.8900   21.8010 C.3     1  LIG  -0.1181  -0.2000 
30    H11      3.8890  -40.1268   21.3997 H       1  LIG   0.0732   0.1000 
31    H12      3.0430  -39.6129   22.8177 H       1  LIG   0.0789   0.1000 
32    C15      1.6390  -40.0610   21.0880 C.3     1  LIG  -0.1196  -0.2000 
33    H13      0.6832  -39.9283   21.5242 H       1  LIG   0.0807   0.1000 
34    H14      1.5292  -40.4423   20.1061 H       1  LIG   0.0733   0.1000 
@<TRIPOS>BOND
1     2     1     ar
2     3     2     1
3     4     2     ar
4     5     4     1
5     6     4     ar
6     7     6     ar
7     8     7     1
8     9     8     1
9     10    8     1
10    11    10    1
11    12    11    ar
12    13    12    1
13    14    12    ar
14    15    14    1
15    16    14    ar
16    17    16    1
17    18    16    ar
18    19    11    ar
19    19    18    ar
20    20    19    1
21    21    1     ar
22    21    7     ar
23    21    20    1
24    22    6     1
25    23    22    1
26    24    22    1
27    25    22    1
28    26    10    2
29    27    20    1
30    28    27    1
31    29    27    1
32    30    29    1
33    31    29    1
34    32    27    1
35    32    29    1
36    33    32    1
37    34    32    1
@<TRIPOS>SUBSTRUCTURE
1   LIG    1    
 
########## Name        : 1VRT.lig
########## Description : AM1BCC_CHARGES =  -0.0002 ORIGINAL_CHARGES =  -0.0000

@<TRIPOS>MOLECULE
1VRT.lig
34    37    1     0     0    
SMALL
USER_CHARGES
@<TRIPOS>ATOM
1     N1       4.0540  -36.9310   22.2210 N.ar    1  LIG  -0.6650  -0.6200 
2     C1       4.9660  -36.2380   22.9390 C.ar    1  LIG   0.3947   0.1600 
3     H1       6.0082  -36.2811   22.6707 H       1  LIG   0.0281   0.1500 
4     C2       4.6240  -35.4500   24.0360 C.ar    1  LIG  -0.2334  -0.1500 
5     H2       5.3884  -34.9151   24.5740 H       1  LIG   0.1480   0.1500 
6     C3       3.3050  -35.3690   24.4150 C.ar    1  LIG  -0.0698  -0.1435 
7     C4       2.3460  -36.0770   23.6860 C.ar    1  LIG  -0.0398   0.1170 
8     N2       0.9890  -36.0280   24.1030 N.am    1  LIG  -0.4596  -0.5470 
9     H3       0.7643  -35.9928   25.0860 H       1  LIG   0.3311   0.3700 
10    C5      -0.1450  -36.0180   23.4080 C.2     1  LIG   0.7361   0.5438 
11    C6      -0.1190  -36.0770   21.8860 C.ar    1  LIG  -0.2550   0.0862 
12    C7      -1.1230  -35.3990   21.1890 C.ar    1  LIG  -0.0321  -0.1500 
13    H4      -1.7552  -34.6955   21.7041 H       1  LIG   0.1623   0.1500 
14    C8      -1.2960  -35.6300   19.8690 C.ar    1  LIG  -0.2723  -0.1500 
15    H5      -2.0662  -35.1073   19.3273 H       1  LIG   0.1522   0.1500 
16    C9      -0.4670  -36.5450   19.2400 C.ar    1  LIG   0.4373   0.1600 
17    H6      -0.5947  -36.7554   18.1915 H       1  LIG   0.0280   0.1500 
18    N3       0.5220  -37.2120   19.8740 N.ar    1  LIG  -0.6893  -0.6200 
19    C10      0.7040  -36.9790   21.1800 C.ar    1  LIG   0.6480   0.4100 
20    N4       1.7670  -37.6730   21.8260 N.pl3   1  LIG  -0.6924  -0.3690 
21    C11      2.7540  -36.8570   22.5840 C.ar    1  LIG   0.5805   0.4100 
22    C12      2.9040  -34.5090   25.6010 C.3     1  LIG  -0.0620   0.1435 
23    H7       2.2235  -33.7630   25.2820 H       1  LIG   0.0570   0.0000 
24    H8       2.4436  -35.1154   26.3371 H       1  LIG   0.0495   0.0000 
25    H9       3.7654  -34.0491   26.0108 H       1  LIG   0.0519   0.0000 
26    O1      -1.2400  -35.9060   23.9770 O.2     1  LIG  -0.6361  -0.5700 
27    C13      2.3440  -38.7570   21.0360 C.3     1  LIG   0.1354   0.0690 
28    H10      3.1238  -38.3754   20.4296 H       1  LIG   0.0981   0.1000 
29    C14      2.9380  -39.8900   21.8010 C.3     1  LIG  -0.1181  -0.2000 
30    H11      3.8890  -40.1268   21.3997 H       1  LIG   0.0732   0.1000 
31    H12      3.0430  -39.6129   22.8177 H       1  LIG   0.0789   0.1000 
32    C15      1.6390  -40.0610   21.0880 C.3     1  LIG  -0.1196  -0.2000 
33    H13      0.6832  -39.9283   21.5242 H       1  LIG   0.0807   0.1000 
34    H14      1.5292  -40.4423   20.1061 H       1  LIG   0.0733   0.1000 
@<TRIPOS>BOND
1     2     1     ar
2     3     2     1
3     4     2     ar
4     5     4     1
5     6     4     ar
6     7     6     ar
7     8     7     1
8     9     8     1
9     10    8     1
10    11    10    1
11    12    11    ar
12    13    12    1
13    14    12    ar
14    15    14    1
15    16    14    ar
16    17    16    1
17    18    16    ar
18    19    11    ar
19    19    18    ar
20    20    19    1
21    21    1     ar
22    21    7     ar
23    21    20    1
24    22    6     1
25    23    22    1
26    24    22    1
27    25    22    1
28    26    10    2
29    27    20    1
30    28    27    1
31    29    27    1
32    30    29    1
33    31    29    1
34    32    27    1
35    32    29    1
36    33    32    1
37    34    32    1
@<TRIPOS>SUBSTRUCTURE
1   LIG    1    
 
########## Name        : 1VRT.lig
########## Description : AM1BCC_CHARGES =  -0.0002 ORIGINAL_CHARGES =  -0.0000

@<TRIPOS>MOLECULE
1VRT.lig
34    37    1     0     0    
SMALL
USER_CHARGES
@<TRIPOS>ATOM
1     N1       4.0540  -36.9310   22.2210 N.ar    1  LIG  -0.6650  -0.6200 
2     C1       4.9660  -36.2380   22.9390 C.ar    1  LIG   0.3947   0.1600 
3     H1       6.0082  -36.2811   22.6707 H       1  LIG   0.0281   0.1500 
4     C2       4.6240  -35.4500   24.0360 C.ar    1  LIG  -0.2334  -0.1500 
5     H2       5.3884  -34.9151   24.5740 H       1  LIG   0.1480   0.1500 
6     C3       3.3050  -35.3690   24.4150 C.ar    1  LIG  -0.0698  -0.1435 
7     C4       2.3460  -36.0770   23.6860 C.ar    1  LIG  -0.0398   0.1170 
8     N2       0.9890  -36.0280   24.1030 N.am    1  LIG  -0.4596  -0.5470 
9     H3       0.7643  -35.9928   25.0860 H       1  LIG   0.3311   0.3700 
10    C5      -0.1450  -36.0180   23.4080 C.2     1  LIG   0.7361   0.5438 
11    C6      -0.1190  -36.0770   21.8860 C.ar    1  LIG  -0.2550   0.0862 
12    C7      -1.1230  -35.3990   21.1890 C.ar    1  LIG  -0.0321  -0.1500 
13    H4      -1.7552  -34.6955   21.7041 H       1  LIG   0.1623   0.1500 
14    C8      -1.2960  -35.6300   19.8690 C.ar    1  LIG  -0.2723  -0.1500 
15    H5      -2.0662  -35.1073   19.3273 H       1  LIG   0.1522   0.1500 
16    C9      -0.4670  -36.5450   19.2400 C.ar    1  LIG   0.4373   0.1600 
17    H6      -0.5947  -36.7554   18.1915 H       1  LIG   0.0280   0.1500 
18    N3       0.5220  -37.2120   19.8740 N.ar    1  LIG  -0.6893  -0.6200 
19    C10      0.7040  -36.9790   21.1800 C.ar    1  LIG   0.6480   0.4100 
20    N4       1.7670  -37.6730   21.8260 N.pl3   1  LIG  -0.6924  -0.3690 
21    C11      2.7540  -36.8570   22.5840 C.ar    1  LIG   0.5805   0.4100 
22    C12      2.9040  -34.5090   25.6010 C.3     1  LIG  -0.0620   0.1435 
23    H7       2.2235  -33.7630   25.2820 H       1  LIG   0.0570   0.0000 
24    H8       2.4436  -35.1154   26.3371 H       1  LIG   0.0495   0.0000 
25    H9       3.7654  -34.0491   26.0108 H       1  LIG   0.0519   0.0000 
26    O1      -1.2400  -35.9060   23.9770 O.2     1  LIG  -0.6361  -0.5700 
27    C13      2.3440  -38.7570   21.0360 C.3     1  LIG   0.1354   0.0690 
28    H10      3.1238  -38.3754   20.4296 H       1  LIG   0.0981   0.1000 
29    C14      2.9380  -39.8900   21.8010 C.3     1  LIG  -0.1181  -0.2000 
30    H11      3.8890  -40.1268   21.3997 H       1  LIG   0.0732   0.1000 
31    H12      3.0430  -39.6129   22.8177 H       1  LIG   0.0789   0.1000 
32    C15      1.6390  -40.0610   21.0880 C.3     1  LIG  -0.1196  -0.2000 
33    H13      0.6832  -39.9283   21.5242 H       1  LIG   0.0807   0.1000 
34    H14      1.5292  -40.4423   20.1061 H       1  LIG   0.0733   0.1000 
@<TRIPOS>BOND
1     2     1     ar
2     3     2     1
3     4     2     ar
4     5     4     1
5     6     4     ar
6     7     6     ar
7     8     7     1
8     9     8     1
9     10    8     1
10    11    10    1
11    12    11    ar
12    13    12    1
13    14    12    ar
14    15    14    1
15    16    14    ar
16    17    16    1
17    18    16    ar
18    19    11    ar
19    19    18    ar
20    20    19    1
21    21    1     ar
22    21    7     ar
23    21    20    1
24    22    6     1
25    23    22    1
26    24    22    1
27    25    22    1
28    26    10    2
29    27    20    1
30    28    27    1
31    29    27    1
32    30    29    1
33    31    29    1
34    32    27    1
35    32    29    1
36    33    32    1
37    34    32    1
@<TRIPOS>SUBSTRUCTURE
1   LIG    1    
 
########## Name        : 1VRT.lig
########## Description : AM1BCC_CHARGES =  -0.0002 ORIGINAL_CHARGES =  -0.0000

@<TRIPOS>MOLECULE
1VRT.lig
34    37    1     0     0    
SMALL
USER_CHARGES
@<TRIPOS>ATOM
1     N1       4.0540  -36.9310   22.2210 N.ar    1  LIG  -0.6650  -0.6200 
2     C1       4.9660  -36.2380   22.9390 C.ar    1  LIG   0.3947   0.1600 
3     H1       6.0082  -36.2811   22.6707 H       1  LIG   0.0281   0.1500 
4     C2       4.6240  -35.4500   24.0360 C.ar    1  LIG  -0.2334  -0.1500 
5     H2       5.3884  -34.9151   24.5740 H       1  LIG   0.1480   0.1500 
6     C3       3.3050  -35.3690   24.4150 C.ar    1  LIG  -0.0698  -0.1435 
7     C4       2.3460  -36.0770   23.6860 C.ar    1  LIG  -0.0398   0.1170 
8     N2       0.9890  -36.0280   24.1030 N.am    1  LIG  -0.4596  -0.5470 
9     H3       0.7643  -35.9928   25.0860 H       1  LIG   0.3311   0.3700 
10    C5      -0.1450  -36.0180   23.4080 C.2     1  LIG   0.7361   0.5438 
11    C6      -0.1190  -36.0770   21.8860 C.ar    1  LIG  -0.2550   0.0862 
12    C7      -1.1230  -35.3990   21.1890 C.ar    1  LIG  -0.0321  -0.1500 
13    H4      -1.7552  -34.6955   21.7041 H       1  LIG   0.1623   0.1500 
14    C8      -1.2960  -35.6300   19.8690 C.ar    1  LIG  -0.2723  -0.1500 
15    H5      -2.0662  -35.1073   19.3273 H       1  LIG   0.1522   0.1500 
16    C9      -0.4670  -36.5450   19.2400 C.ar    1  LIG   0.4373   0.1600 
17    H6      -0.5947  -36.7554   18.1915 H       1  LIG   0.0280   0.1500 
18    N3       0.5220  -37.2120   19.8740 N.ar    1  LIG  -0.6893  -0.6200 
19    C10      0.7040  -36.9790   21.1800 C.ar    1  LIG   0.6480   0.4100 
20    N4       1.7670  -37.6730   21.8260 N.pl3   1  LIG  -0.6924  -0.3690 
21    C11      2.7540  -36.8570   22.5840 C.ar    1  LIG   0.5805   0.4100 
22    C12      2.9040  -34.5090   25.6010 C.3     1  LIG  -0.0620   0.1435 
23    H7       2.2235  -33.7630   25.2820 H       1  LIG   0.0570   0.0000 
24    H8       2.4436  -35.1154   26.3371 H       1  LIG   0.0495   0.0000 
25    H9       3.7654  -34.0491   26.0108 H       1  LIG   0.0519   0.0000 
26    O1      -1.2400  -35.9060   23.9770 O.2     1  LIG  -0.6361  -0.5700 
27    C13      2.3440  -38.7570   21.0360 C.3     1  LIG   0.1354   0.0690 
28    H10      3.1238  -38.3754   20.4296 H       1  LIG   0.0981   0.1000 
29    C14      2.9380  -39.8900   21.8010 C.3     1  LIG  -0.1181  -0.2000 
30    H11      3.8890  -40.1268   21.3997 H       1  LIG   0.0732   0.1000 
31    H12      3.0430  -39.6129   22.8177 H       1  LIG   0.0789   0.1000 
32    C15      1.6390  -40.0610   21.0880 C.3     1  LIG  -0.1196  -0.2000 
33    H13      0.6832  -39.9283   21.5242 H       1  LIG   0.0807   0.1000 
34    H14      1.5292  -40.4423   20.1061 H       1  LIG   0.0733   0.1000 
@<TRIPOS>BOND
1     2     1     ar
2     3     2     1
3     4     2     ar
4     5     4     1
5     6     4     ar
6     7     6     ar
7     8     7     1
8     9     8     1
9     10    8     1
10    11    10    1
11    12    11    ar
12    13    12    1
13    14    12    ar
14    15    14    1
15    16    14    ar
16    17    16    1
17    18    16    ar
18    19    11    ar
19    19    18    ar
20    20    19    1
21    21    1     ar
22    21    7     ar
23    21    20    1
24    22    6     1
25    23    22    1
26    24    22    1
27    25    22    1
28    26    10    2
29    27    20    1
30    28    27    1
31    29    27    1
32    30    29    1
33    31    29    1
34    32    27    1
35    32    29    1
36    33    32    1
37    34    32    1
@<TRIPOS>SUBSTRUCTURE
1   LIG    1    
 
########## Name        : 1VRT.lig
########## Description : AM1BCC_CHARGES =  -0.0002 ORIGINAL_CHARGES =  -0.0000

@<TRIPOS>MOLECULE
1VRT.lig
34    37    1     0     0    
SMALL
USER_CHARGES
@<TRIPOS>ATOM
1     N1       4.0540  -36.9310   22.2210 N.ar    1  LIG  -0.6650  -0.6200 
2     C1       4.9660  -36.2380   22.9390 C.ar    1  LIG   0.3947   0.1600 
3     H1       6.0082  -36.2811   22.6707 H       1  LIG   0.0281   0.1500 
4     C2       4.6240  -35.4500   24.0360 C.ar    1  LIG  -0.2334  -0.1500 
5     H2       5.3884  -34.9151   24.5740 H       1  LIG   0.1480   0.1500 
6     C3       3.3050  -35.3690   24.4150 C.ar    1  LIG  -0.0698  -0.1435 
7     C4       2.3460  -36.0770   23.6860 C.ar    1  LIG  -0.0398   0.1170 
8     N2       0.9890  -36.0280   24.1030 N.am    1  LIG  -0.4596  -0.5470 
9     H3       0.7643  -35.9928   25.0860 H       1  LIG   0.3311   0.3700 
10    C5      -0.1450  -36.0180   23.4080 C.2     1  LIG   0.7361   0.5438 
11    C6      -0.1190  -36.0770   21.8860 C.ar    1  LIG  -0.2550   0.0862 
12    C7      -1.1230  -35.3990   21.1890 C.ar    1  LIG  -0.0321  -0.1500 
13    H4      -1.7552  -34.6955   21.7041 H       1  LIG   0.1623   0.1500 
14    C8      -1.2960  -35.6300   19.8690 C.ar    1  LIG  -0.2723  -0.1500 
15    H5      -2.0662  -35.1073   19.3273 H       1  LIG   0.1522   0.1500 
16    C9      -0.4670  -36.5450   19.2400 C.ar    1  LIG   0.4373   0.1600 
17    H6      -0.5947  -36.7554   18.1915 H       1  LIG   0.0280   0.1500 
18    N3       0.5220  -37.2120   19.8740 N.ar    1  LIG  -0.6893  -0.6200 
19    C10      0.7040  -36.9790   21.1800 C.ar    1  LIG   0.6480   0.4100 
20    N4       1.7670  -37.6730   21.8260 N.pl3   1  LIG  -0.6924  -0.3690 
21    C11      2.7540  -36.8570   22.5840 C.ar    1  LIG   0.5805   0.4100 
22    C12      2.9040  -34.5090   25.6010 C.3     1  LIG  -0.0620   0.1435 
23    H7       2.2235  -33.7630   25.2820 H       1  LIG   0.0570   0.0000 
24    H8       2.4436  -35.1154   26.3371 H       1  LIG   0.0495   0.0000 
25    H9       3.7654  -34.0491   26.0108 H       1  LIG   0.0519   0.0000 
26    O1      -1.2400  -35.9060   23.9770 O.2     1  LIG  -0.6361  -0.5700 
27    C13      2.3440  -38.7570   21.0360 C.3     1  LIG   0.1354   0.0690 
28    H10      3.1238  -38.3754   20.4296 H       1  LIG   0.0981   0.1000 
29    C14      2.9380  -39.8900   21.8010 C.3     1  LIG  -0.1181  -0.2000 
30    H11      3.8890  -40.1268   21.3997 H       1  LIG   0.0732   0.1000 
31    H12      3.0430  -39.6129   22.8177 H       1  LIG   0.0789   0.1000 
32    C15      1.6390  -40.0610   21.0880 C.3     1  LIG  -0.1196  -0.2000 
33    H13      0.6832  -39.9283   21.5242 H       1  LIG   0.0807   0.1000 
34    H14      1.5292  -40.4423   20.1061 H       1  LIG   0.0733   0.1000 
@<TRIPOS>BOND
1     2     1     ar
2     3     2     1
3     4     2     ar
4     5     4     1
5     6     4     ar
6     7     6     ar
7     8     7     1
8     9     8     1
9     10    8     1
10    11    10    1
11    12    11    ar
12    13    12    1
13    14    12    ar
14    15    14    1
15    16    14    ar
16    17    16    1
17    18    16    ar
18    19    11    ar
19    19    18    ar
20    20    19    1
21    21    1     ar
22    21    7     ar
23    21    20    1
24    22    6     1
25    23    22    1
26    24    22    1
27    25    22    1
28    26    10    2
29    27    20    1
30    28    27    1
31    29    27    1
32    30    29    1
33    31    29    1
34    32    27    1
35    32    29    1
36    33    32    1
37    34    32    1
@<TRIPOS>SUBSTRUCTURE
1   LIG    1    
 
########## Name        : 1VRT.lig
########## Description : AM1BCC_CHARGES =  -0.0002 ORIGINAL_CHARGES =  -0.0000

@<TRIPOS>MOLECULE
1VRT.lig
34    37    1     0     0    
SMALL
USER_CHARGES
@<TRIPOS>ATOM
1     N1       4.0540  -36.9310   22.2210 N.ar    1  LIG  -0.6650  -0.6200 
2     C1       4.9660  -36.2380   22.9390 C.ar    1  LIG   0.3947   0.1600 
3     H1       6.0082  -36.2811   22.6707 H       1  LIG   0.0281   0.1500 
4     C2       4.6240  -35.4500   24.0360 C.ar    1  LIG  -0.2334  -0.1500 
5     H2       5.3884  -34.9151   24.5740 H       1  LIG   0.1480   0.1500 
6     C3       3.3050  -35.3690   24.4150 C.ar    1  LIG  -0.0698  -0.1435 
7     C4       2.3460  -36.0770   23.6860 C.ar    1  LIG  -0.0398   0.1170 
8     N2       0.9890  -36.0280   24.1030 N.am    1  LIG  -0.4596  -0.5470 
9     H3       0.7643  -35.9928   25.0860 H       1  LIG   0.3311   0.3700 
10    C5      -0.1450  -36.0180   23.4080 C.2     1  LIG   0.7361   0.5438 
11    C6      -0.1190  -36.0770   21.8860 C.ar    1  LIG  -0.2550   0.0862 
12    C7      -1.1230  -35.3990   21.1890 C.ar    1  LIG  -0.0321  -0.1500 
13    H4      -1.7552  -34.6955   21.7041 H       1  LIG   0.1623   0.1500 
14    C8      -1.2960  -35.6300   19.8690 C.ar    1  LIG  -0.2723  -0.1500 
15    H5      -2.0662  -35.1073   19.3273 H       1  LIG   0.1522   0.1500 
16    C9      -0.4670  -36.5450   19.2400 C.ar    1  LIG   0.4373   0.1600 
17    H6      -0.5947  -36.7554   18.1915 H       1  LIG   0.0280   0.1500 
18    N3       0.5220  -37.2120   19.8740 N.ar    1  LIG  -0.6893  -0.6200 
19    C10      0.7040  -36.9790   21.1800 C.ar    1  LIG   0.6480   0.4100 
20    N4       1.7670  -37.6730   21.8260 N.pl3   1  LIG  -0.6924  -0.3690 
21    C11      2.7540  -36.8570   22.5840 C.ar    1  LIG   0.5805   0.4100 
22    C12      2.9040  -34.5090   25.6010 C.3     1  LIG  -0.0620   0.1435 
23    H7       2.2235  -33.7630   25.2820 H       1  LIG   0.0570   0.0000 
24    H8       2.4436  -35.1154   26.3371 H       1  LIG   0.0495   0.0000 
25    H9       3.7654  -34.0491   26.0108 H       1  LIG   0.0519   0.0000 
26    O1      -1.2400  -35.9060   23.9770 O.2     1  LIG  -0.6361  -0.5700 
27    C13      2.3440  -38.7570   21.0360 C.3     1  LIG   0.1354   0.0690 
28    H10      3.1238  -38.3754   20.4296 H       1  LIG   0.0981   0.1000 
29    C14      2.9380  -39.8900   21.8010 C.3     1  LIG  -0.1181  -0.2000 
30    H11      3.8890  -40.1268   21.3997 H       1  LIG   0.0732   0.1000 
31    H12      3.0430  -39.6129   22.8177 H       1  LIG   0.0789   0.1000 
32    C15      1.6390  -40.0610   21.0880 C.3     1  LIG  -0.1196  -0.2000 
33    H13      0.6832  -39.9283   21.5242 H       1  LIG   0.0807   0.1000 
34    H14      1.5292  -40.4423   20.1061 H       1  LIG   0.0733   0.1000 
@<TRIPOS>BOND
1     2     1     ar
2     3     2     1
3     4     2     ar
4     5     4     1
5     6     4     ar
6     7     6     ar
7     8     7     1
8     9     8     1
9     10    8     1
10    11    10    1
11    12    11    ar
12    13    12    1
13    14    12    ar
14    15    14    1
15    16    14    ar
16    17    16    1
17    18    16    ar
18    19    11    ar
19    19    18    ar
20    20    19    1
21    21    1     ar
22    21    7     ar
23    21    20    1
24    22    6     1
25    23    22    1
26    24    22    1
27    25    22    1
28    26    10    2
29    27    20    1
30    28    27    1
31    29    27    1
32    30    29    1
33    31    29    1
34    32    27    1
35    32    29    1
36    33    32    1
37    34    32    1
@<TRIPOS>SUBSTRUCTURE
1   LIG    1    
 
########## Name        : 1VRT.lig
########## Description : AM1BCC_CHARGES =  -0.0002 ORIGINAL_CHARGES =  -0.0000

@<TRIPOS>MOLECULE
1VRT.lig
34    37    1     0     0    
SMALL
USER_CHARGES
@<TRIPOS>ATOM
1     N1       4.0540  -36.9310   22.2210 N.ar    1  LIG  -0.6650  -0.6200 
2     C1       4.9660  -36.2380   22.9390 C.ar    1  LIG   0.3947   0.1600 
3     H1       6.0082  -36.2811   22.6707 H       1  LIG   0.0281   0.1500 
4     C2       4.6240  -35.4500   24.0360 C.ar    1  LIG  -0.2334  -0.1500 
5     H2       5.3884  -34.9151   24.5740 H       1  LIG   0.1480   0.1500 
6     C3       3.3050  -35.3690   24.4150 C.ar    1  LIG  -0.0698  -0.1435 
7     C4       2.3460  -36.0770   23.6860 C.ar    1  LIG  -0.0398   0.1170 
8     N2       0.9890  -36.0280   24.1030 N.am    1  LIG  -0.4596  -0.5470 
9     H3       0.7643  -35.9928   25.0860 H       1  LIG   0.3311   0.3700 
10    C5      -0.1450  -36.0180   23.4080 C.2     1  LIG   0.7361   0.5438 
11    C6      -0.1190  -36.0770   21.8860 C.ar    1  LIG  -0.2550   0.0862 
12    C7      -1.1230  -35.3990   21.1890 C.ar    1  LIG  -0.0321  -0.1500 
13    H4      -1.7552  -34.6955   21.7041 H       1  LIG   0.1623   0.1500 
14    C8      -1.2960  -35.6300   19.8690 C.ar    1  LIG  -0.2723  -0.1500 
15    H5      -2.0662  -35.1073   19.3273 H       1  LIG   0.1522   0.1500 
16    C9      -0.4670  -36.5450   19.2400 C.ar    1  LIG   0.4373   0.1600 
17    H6      -0.5947  -36.7554   18.1915 H       1  LIG   0.0280   0.1500 
18    N3       0.5220  -37.2120   19.8740 N.ar    1  LIG  -0.6893  -0.6200 
19    C10      0.7040  -36.9790   21.1800 C.ar    1  LIG   0.6480   0.4100 
20    N4       1.7670  -37.6730   21.8260 N.pl3   1  LIG  -0.6924  -0.3690 
21    C11      2.7540  -36.8570   22.5840 C.ar    1  LIG   0.5805   0.4100 
22    C12      2.9040  -34.5090   25.6010 C.3     1  LIG  -0.0620   0.1435 
23    H7       2.2235  -33.7630   25.2820 H       1  LIG   0.0570   0.0000 
24    H8       2.4436  -35.1154   26.3371 H       1  LIG   0.0495   0.0000 
25    H9       3.7654  -34.0491   26.0108 H       1  LIG   0.0519   0.0000 
26    O1      -1.2400  -35.9060   23.9770 O.2     1  LIG  -0.6361  -0.5700 
27    C13      2.3440  -38.7570   21.0360 C.3     1  LIG   0.1354   0.0690 
28    H10      3.1238  -38.3754   20.4296 H       1  LIG   0.0981   0.1000 
29    C14      2.9380  -39.8900   21.8010 C.3     1  LIG  -0.1181  -0.2000 
30    H11      3.8890  -40.1268   21.3997 H       1  LIG   0.0732   0.1000 
31    H12      3.0430  -39.6129   22.8177 H       1  LIG   0.0789   0.1000 
32    C15      1.6390  -40.0610   21.0880 C.3     1  LIG  -0.1196  -0.2000 
33    H13      0.6832  -39.9283   21.5242 H       1  LIG   0.0807   0.1000 
34    H14      1.5292  -40.4423   20.1061 H       1  LIG   0.0733   0.1000 
@<TRIPOS>BOND
1     2     1     ar
2     3     2     1
3     4     2     ar
4     5     4     1
5     6     4     ar
6     7     6     ar
7     8     7     1
8     9     8     1
9     10    8     1
10    11    10    1
11    12    11    ar
12    13    12    1
13    14    12    ar
14    15    14    1
15    16    14    ar
16    17    16    1
17    18    16    ar
18    19    11    ar
19    19    18    ar
20    20    19    1
21    21    1     ar
22    21    7     ar
23    21    20    1
24    22    6     1
25    23    22    1
26    24    22    1
27    25    22    1
28    26    10    2
29    27    20    1
30    28    27    1
31    29    27    1
32    30    29    1
33    31    29    1
34    32    27    1
35    32    29    1
36    33    32    1
37    34    32    1
@<TRIPOS>SUBSTRUCTURE
1   LIG    1    
 
########## Name        : 1VRT.lig
########## Description : AM1BCC_CHARGES =  -0.0002 ORIGINAL_CHARGES =  -0.0000

@<TRIPOS>MOLECULE
1VRT.lig
34    37    1     0     0    
SMALL
USER_CHARGES
@<TRIPOS>ATOM
1     N1       4.0540  -36.9310   22.2210 N.ar    1  LIG  -0.6650  -0.6200 
2     C1       4.9660  -36.2380   22.9390 C.ar    1  LIG   0.3947   0.1600 
3     H1       6.0082  -36.2811   22.6707 H       1  LIG   0.0281   0.1500 
4     C2       4.6240  -35.4500   24.0360 C.ar    1  LIG  -0.2334  -0.1500 
5     H2       5.3884  -34.9151   24.5740 H       1  LIG   0.1480   0.1500 
6     C3       3.3050  -35.3690   24.4150 C.ar    1  LIG  -0.0698  -0.1435 
7     C4       2.3460  -36.0770   23.6860 C.ar    1  LIG  -0.0398   0.1170 
8     N2       0.9890  -36.0280   24.1030 N.am    1  LIG  -0.4596  -0.5470 
9     H3       0.7643  -35.9928   25.0860 H       1  LIG   0.3311   0.3700 
10    C5      -0.1450  -36.0180   23.4080 C.2     1  LIG   0.7361   0.5438 
11    C6      -0.1190  -36.0770   21.8860 C.ar    1  LIG  -0.2550   0.0862 
12    C7      -1.1230  -35.3990   21.1890 C.ar    1  LIG  -0.0321  -0.1500 
13    H4      -1.7552  -34.6955   21.7041 H       1  LIG   0.1623   0.1500 
14    C8      -1.2960  -35.6300   19.8690 C.ar    1  LIG  -0.2723  -0.1500 
15    H5      -2.0662  -35.1073   19.3273 H       1  LIG   0.1522   0.1500 
16    C9      -0.4670  -36.5450   19.2400 C.ar    1  LIG   0.4373   0.1600 
17    H6      -0.5947  -36.7554   18.1915 H       1  LIG   0.0280   0.1500 
18    N3       0.5220  -37.2120   19.8740 N.ar    1  LIG  -0.6893  -0.6200 
19    C10      0.7040  -36.9790   21.1800 C.ar    1  LIG   0.6480   0.4100 
20    N4       1.7670  -37.6730   21.8260 N.pl3   1  LIG  -0.6924  -0.3690 
21    C11      2.7540  -36.8570   22.5840 C.ar    1  LIG   0.5805   0.4100 
22    C12      2.9040  -34.5090   25.6010 C.3     1  LIG  -0.0620   0.1435 
23    H7       2.2235  -33.7630   25.2820 H       1  LIG   0.0570   0.0000 
24    H8       2.4436  -35.1154   26.3371 H       1  LIG   0.0495   0.0000 
25    H9       3.7654  -34.0491   26.0108 H       1  LIG   0.0519   0.0000 
26    O1      -1.2400  -35.9060   23.9770 O.2     1  LIG  -0.6361  -0.5700 
27    C13      2.3440  -38.7570   21.0360 C.3     1  LIG   0.1354   0.0690 
28    H10      3.1238  -38.3754   20.4296 H       1  LIG   0.0981   0.1000 
29    C14      2.9380  -39.8900   21.8010 C.3     1  LIG  -0.1181  -0.2000 
30    H11      3.8890  -40.1268   21.3997 H       1  LIG   0.0732   0.1000 
31    H12      3.0430  -39.6129   22.8177 H       1  LIG   0.0789   0.1000 
32    C15      1.6390  -40.0610   21.0880 C.3     1  LIG  -0.1196  -0.2000 
33    H13      0.6832  -39.9283   21.5242 H       1  LIG   0.0807   0.1000 
34    H14      1.5292  -40.4423   20.1061 H       1  LIG   0.0733   0.1000 
@<TRIPOS>BOND
1     2     1     ar
2     3     2     1
3     4     2     ar
4     5     4     1
5     6     4     ar
6     7     6     ar
7     8     7     1
8     9     8     1
9     10    8     1
10    11    10    1
11    12    11    ar
12    13    12    1
13    14    12    ar
14    15    14    1
15    16    14    ar
16    17    16    1
17    18    16    ar
18    19    11    ar
19    19    18    ar
20    20    19    1
21    21    1     ar
22    21    7     ar
23    21    20    1
24    22    6     1
25    23    22    1
26    24    22    1
27    25    22    1
28    26    10    2
29    27    20    1
30    28    27    1
31    29    27    1
32    30    29    1
33    31    29    1
34    32    27    1
35    32    29    1
36    33    32    1
37    34    32    1
@<TRIPOS>SUBSTRUCTURE
1   LIG    1    
 
########## Name        : 1VRT.lig
########## Description : AM1BCC_CHARGES =  -0.0002 ORIGINAL_CHARGES =  -0.0000

@<TRIPOS>MOLECULE
1VRT.lig
34    37    1     0     0    
SMALL
USER_CHARGES
@<TRIPOS>ATOM
1     N1       4.0540  -36.9310   22.2210 N.ar    1  LIG  -0.6650  -0.6200 
2     C1       4.9660  -36.2380   22.9390 C.ar    1  LIG   0.3947   0.1600 
3     H1       6.0082  -36.2811   22.6707 H       1  LIG   0.0281   0.1500 
4     C2       4.6240  -35.4500   24.0360 C.ar    1  LIG  -0.2334  -0.1500 
5     H2       5.3884  -34.9151   24.5740 H       1  LIG   0.1480   0.1500 
6     C3       3.3050  -35.3690   24.4150 C.ar    1  LIG  -0.0698  -0.1435 
7     C4       2.3460  -36.0770   23.6860 C.ar    1  LIG  -0.0398   0.1170 
8     N2       0.9890  -36.0280   24.1030 N.am    1  LIG  -0.4596  -0.5470 
9     H3       0.7643  -35.9928   25.0860 H       1  LIG   0.3311   0.3700 
10    C5      -0.1450  -36.0180   23.4080 C.2     1  LIG   0.7361   0.5438 
11    C6      -0.1190  -36.0770   21.8860 C.ar    1  LIG  -0.2550   0.0862 
12    C7      -1.1230  -35.3990   21.1890 C.ar    1  LIG  -0.0321  -0.1500 
13    H4      -1.7552  -34.6955   21.7041 H       1  LIG   0.1623   0.1500 
14    C8      -1.2960  -35.6300   19.8690 C.ar    1  LIG  -0.2723  -0.1500 
15    H5      -2.0662  -35.1073   19.3273 H       1  LIG   0.1522   0.1500 
16    C9      -0.4670  -36.5450   19.2400 C.ar    1  LIG   0.4373   0.1600 
17    H6      -0.5947  -36.7554   18.1915 H       1  LIG   0.0280   0.1500 
18    N3       0.5220  -37.2120   19.8740 N.ar    1  LIG  -0.6893  -0.6200 
19    C10      0.7040  -36.9790   21.1800 C.ar    1  LIG   0.6480   0.4100 
20    N4       1.7670  -37.6730   21.8260 N.pl3   1  LIG  -0.6924  -0.3690 
21    C11      2.7540  -36.8570   22.5840 C.ar    1  LIG   0.5805   0.4100 
22    C12      2.9040  -34.5090   25.6010 C.3     1  LIG  -0.0620   0.1435 
23    H7       2.2235  -33.7630   25.2820 H       1  LIG   0.0570   0.0000 
24    H8       2.4436  -35.1154   26.3371 H       1  LIG   0.0495   0.0000 
25    H9       3.7654  -34.0491   26.0108 H       1  LIG   0.0519   0.0000 
26    O1      -1.2400  -35.9060   23.9770 O.2     1  LIG  -0.6361  -0.5700 
27    C13      2.3440  -38.7570   21.0360 C.3     1  LIG   0.1354   0.0690 
28    H10      3.1238  -38.3754   20.4296 H       1  LIG   0.0981   0.1000 
29    C14      2.9380  -39.8900   21.8010 C.3     1  LIG  -0.1181  -0.2000 
30    H11      3.8890  -40.1268   21.3997 H       1  LIG   0.0732   0.1000 
31    H12      3.0430  -39.6129   22.8177 H       1  LIG   0.0789   0.1000 
32    C15      1.6390  -40.0610   21.0880 C.3     1  LIG  -0.1196  -0.2000 
33    H13      0.6832  -39.9283   21.5242 H       1  LIG   0.0807   0.1000 
34    H14      1.5292  -40.4423   20.1061 H       1  LIG   0.0733   0.1000 
@<TRIPOS>BOND
1     2     1     ar
2     3     2     1
3     4     2     ar
4     5     4     1
5     6     4     ar
6     7     6     ar
7     8     7     1
8     9     8     1
9     10    8     1
10    11    10    1
11    12    11    ar
12    13    12    1
13    14    12    ar
14    15    14    1
15    16    14    ar
16    17    16    1
17    18    16    ar
18    19    11    ar
19    19    18    ar
20    20    19    1
21    21    1     ar
22    21    7     ar
23    21    20    1
24    22    6     1
25    23    22    1
26    24    22    1
27    25    22    1
28    26    10    2
29    27    20    1
30    28    27    1
31    29    27    1
32    30    29    1
33    31    29    1
34    32    27    1
35    32    29    1
36    33    32    1
37    34    32    1
@<TRIPOS>SUBSTRUCTURE
1   LIG    1    
 
########## Name        : 1VRT.lig
########## Description : AM1BCC_CHARGES =  -0.0002 ORIGINAL_CHARGES =  -0.0000

@<TRIPOS>MOLECULE
1VRT.lig
34    37    1     0     0    
SMALL
USER_CHARGES
@<TRIPOS>ATOM
1     N1       4.0540  -36.9310   22.2210 N.ar    1  LIG  -0.6650  -0.6200 
2     C1       4.9660  -36.2380   22.9390 C.ar    1  LIG   0.3947   0.1600 
3     H1       6.0082  -36.2811   22.6707 H       1  LIG   0.0281   0.1500 
4     C2       4.6240  -35.4500   24.0360 C.ar    1  LIG  -0.2334  -0.1500 
5     H2       5.3884  -34.9151   24.5740 H       1  LIG   0.1480   0.1500 
6     C3       3.3050  -35.3690   24.4150 C.ar    1  LIG  -0.0698  -0.1435 
7     C4       2.3460  -36.0770   23.6860 C.ar    1  LIG  -0.0398   0.1170 
8     N2       0.9890  -36.0280   24.1030 N.am    1  LIG  -0.4596  -0.5470 
9     H3       0.7643  -35.9928   25.0860 H       1  LIG   0.3311   0.3700 
10    C5      -0.1450  -36.0180   23.4080 C.2     1  LIG   0.7361   0.5438 
11    C6      -0.1190  -36.0770   21.8860 C.ar    1  LIG  -0.2550   0.0862 
12    C7      -1.1230  -35.3990   21.1890 C.ar    1  LIG  -0.0321  -0.1500 
13    H4      -1.7552  -34.6955   21.7041 H       1  LIG   0.1623   0.1500 
14    C8      -1.2960  -35.6300   19.8690 C.ar    1  LIG  -0.2723  -0.1500 
15    H5      -2.0662  -35.1073   19.3273 H       1  LIG   0.1522   0.1500 
16    C9      -0.4670  -36.5450   19.2400 C.ar    1  LIG   0.4373   0.1600 
17    H6      -0.5947  -36.7554   18.1915 H       1  LIG   0.0280   0.1500 
18    N3       0.5220  -37.2120   19.8740 N.ar    1  LIG  -0.6893  -0.6200 
19    C10      0.7040  -36.9790   21.1800 C.ar    1  LIG   0.6480   0.4100 
20    N4       1.7670  -37.6730   21.8260 N.pl3   1  LIG  -0.6924  -0.3690 
21    C11      2.7540  -36.8570   22.5840 C.ar    1  LIG   0.5805   0.4100 
22    C12      2.9040  -34.5090   25.6010 C.3     1  LIG  -0.0620   0.1435 
23    H7       2.2235  -33.7630   25.2820 H       1  LIG   0.0570   0.0000 
24    H8       2.4436  -35.1154   26.3371 H       1  LIG   0.0495   0.0000 
25    H9       3.7654  -34.0491   26.0108 H       1  LIG   0.0519   0.0000 
26    O1      -1.2400  -35.9060   23.9770 O.2     1  LIG  -0.6361  -0.5700 
27    C13      2.3440  -38.7570   21.0360 C.3     1  LIG   0.1354   0.0690 
28    H10      3.1238  -38.3754   20.4296 H       1  LIG   0.0981   0.1000 
29    C14      2.9380  -39.8900   21.8010 C.3     1  LIG  -0.1181  -0.2000 
30    H11      3.8890  -40.1268   21.3997 H       1  LIG   0.0732   0.1000 
31    H12      3.0430  -39.6129   22.8177 H       1  LIG   0.0789   0.1000 
32    C15      1.6390  -40.0610   21.0880 C.3     1  LIG  -0.1196  -0.2000 
33    H13      0.6832  -39.9283   21.5242 H       1  LIG   0.0807   0.1000 
34    H14      1.5292  -40.4423   20.1061 H       1  LIG   0.0733   0.1000 
@<TRIPOS>BOND
1     2     1     ar
2     3     2     1
3     4     2     ar
4     5     4     1
5     6     4     ar
6     7     6     ar
7     8     7     1
8     9     8     1
9     10    8     1
10    11    10    1
11    12    11    ar
12    13    12    1
13    14    12    ar
14    15    14    1
15    16    14    ar
16    17    16    1
17    18    16    ar
18    19    11    ar
19    19    18    ar
20    20    19    1
21    21    1     ar
22    21    7     ar
23    21    20    1
24    22    6     1
25    23    22    1
26    24    22    1
27    25    22    1
28    26    10    2
29    27    20    1
30    28    27    1
31    29    27    1
32    30    29    1
33    31    29    1
34    32    27    1
35    32    29    1
36    33    32    1
37    34    32    1
@<TRIPOS>SUBSTRUCTURE
1   LIG    1    
 
########## Name        : 1VRT.lig
########## Description : AM1BCC_CHARGES =  -0.0002 ORIGINAL_CHARGES =  -0.0000

@<TRIPOS>MOLECULE
1VRT.lig
34    37    1     0     0    
SMALL
USER_CHARGES
@<TRIPOS>ATOM
1     N1       4.0540  -36.9310   22.2210 N.ar    1  LIG  -0.6650  -0.6200 
2     C1       4.9660  -36.2380   22.9390 C.ar    1  LIG   0.3947   0.1600 
3     H1       6.0082  -36.2811   22.6707 H       1  LIG   0.0281   0.1500 
4     C2       4.6240  -35.4500   24.0360 C.ar    1  LIG  -0.2334  -0.1500 
5     H2       5.3884  -34.9151   24.5740 H       1  LIG   0.1480   0.1500 
6     C3       3.3050  -35.3690   24.4150 C.ar    1  LIG  -0.0698  -0.1435 
7     C4       2.3460  -36.0770   23.6860 C.ar    1  LIG  -0.0398   0.1170 
8     N2       0.9890  -36.0280   24.1030 N.am    1  LIG  -0.4596  -0.5470 
9     H3       0.7643  -35.9928   25.0860 H       1  LIG   0.3311   0.3700 
10    C5      -0.1450  -36.0180   23.4080 C.2     1  LIG   0.7361   0.5438 
11    C6      -0.1190  -36.0770   21.8860 C.ar    1  LIG  -0.2550   0.0862 
12    C7      -1.1230  -35.3990   21.1890 C.ar    1  LIG  -0.0321  -0.1500 
13    H4      -1.7552  -34.6955   21.7041 H       1  LIG   0.1623   0.1500 
14    C8      -1.2960  -35.6300   19.8690 C.ar    1  LIG  -0.2723  -0.1500 
15    H5      -2.0662  -35.1073   19.3273 H       1  LIG   0.1522   0.1500 
16    C9      -0.4670  -36.5450   19.2400 C.ar    1  LIG   0.4373   0.1600 
17    H6      -0.5947  -36.7554   18.1915 H       1  LIG   0.0280   0.1500 
18    N3       0.5220  -37.2120   19.8740 N.ar    1  LIG  -0.6893  -0.6200 
19    C10      0.7040  -36.9790   21.1800 C.ar    1  LIG   0.6480   0.4100 
20    N4       1.7670  -37.6730   21.8260 N.pl3   1  LIG  -0.6924  -0.3690 
21    C11      2.7540  -36.8570   22.5840 C.ar    1  LIG   0.5805   0.4100 
22    C12      2.9040  -34.5090   25.6010 C.3     1  LIG  -0.0620   0.1435 
23    H7       2.2235  -33.7630   25.2820 H       1  LIG   0.0570   0.0000 
24    H8       2.4436  -35.1154   26.3371 H       1  LIG   0.0495   0.0000 
25    H9       3.7654  -34.0491   26.0108 H       1  LIG   0.0519   0.0000 
26    O1      -1.2400  -35.9060   23.9770 O.2     1  LIG  -0.6361  -0.5700 
27    C13      2.3440  -38.7570   21.0360 C.3     1  LIG   0.1354   0.0690 
28    H10      3.1238  -38.3754   20.4296 H       1  LIG   0.0981   0.1000 
29    C14      2.9380  -39.8900   21.8010 C.3     1  LIG  -0.1181  -0.2000 
30    H11      3.8890  -40.1268   21.3997 H       1  LIG   0.0732   0.1000 
31    H12      3.0430  -39.6129   22.8177 H       1  LIG   0.0789   0.1000 
32    C15      1.6390  -40.0610   21.0880 C.3     1  LIG  -0.1196  -0.2000 
33    H13      0.6832  -39.9283   21.5242 H       1  LIG   0.0807   0.1000 
34    H14      1.5292  -40.4423   20.1061 H       1  LIG   0.0733   0.1000 
@<TRIPOS>BOND
1     2     1     ar
2     3     2     1
3     4     2     ar
4     5     4     1
5     6     4     ar
6     7     6     ar
7     8     7     1
8     9     8     1
9     10    8     1
10    11    10    1
11    12    11    ar
12    13    12    1
13    14    12    ar
14    15    14    1
15    16    14    ar
16    17    16    1
17    18    16    ar
18    19    11    ar
19    19    18    ar
20    20    19    1
21    21    1     ar
22    21    7     ar
23    21    20    1
24    22    6     1
25    23    22    1
26    24    22    1
27    25    22    1
28    26    10    2
29    27    20    1
30    28    27    1
31    29    27    1
32    30    29    1
33    31    29    1
34    32    27    1
35    32    29    1
36    33    32    1
37    34    32    1
@<TRIPOS>SUBSTRUCTURE
1   LIG    1    
 
########## Name        : 1VRT.lig
########## Description : AM1BCC_CHARGES =  -0.0002 ORIGINAL_CHARGES =  -0.0000

@<TRIPOS>MOLECULE
1VRT.lig
34    37    1     0     0    
SMALL
USER_CHARGES
@<TRIPOS>ATOM
1     N1       4.0540  -36.9310   22.2210 N.ar    1  LIG  -0.6650  -0.6200 
2     C1       4.9660  -36.2380   22.9390 C.ar    1  LIG   0.3947   0.1600 
3     H1       6.0082  -36.2811   22.6707 H       1  LIG   0.0281   0.1500 
4     C2       4.6240  -35.4500   24.0360 C.ar    1  LIG  -0.2334  -0.1500 
5     H2       5.3884  -34.9151   24.5740 H       1  LIG   0.1480   0.1500 
6     C3       3.3050  -35.3690   24.4150 C.ar    1  LIG  -0.0698  -0.1435 
7     C4       2.3460  -36.0770   23.6860 C.ar    1  LIG  -0.0398   0.1170 
8     N2       0.9890  -36.0280   24.1030 N.am    1  LIG  -0.4596  -0.5470 
9     H3       0.7643  -35.9928   25.0860 H       1  LIG   0.3311   0.3700 
10    C5      -0.1450  -36.0180   23.4080 C.2     1  LIG   0.7361   0.5438 
11    C6      -0.1190  -36.0770   21.8860 C.ar    1  LIG  -0.2550   0.0862 
12    C7      -1.1230  -35.3990   21.1890 C.ar    1  LIG  -0.0321  -0.1500 
13    H4      -1.7552  -34.6955   21.7041 H       1  LIG   0.1623   0.1500 
14    C8      -1.2960  -35.6300   19.8690 C.ar    1  LIG  -0.2723  -0.1500 
15    H5      -2.0662  -35.1073   19.3273 H       1  LIG   0.1522   0.1500 
16    C9      -0.4670  -36.5450   19.2400 C.ar    1  LIG   0.4373   0.1600 
17    H6      -0.5947  -36.7554   18.1915 H       1  LIG   0.0280   0.1500 
18    N3       0.5220  -37.2120   19.8740 N.ar    1  LIG  -0.6893  -0.6200 
19    C10      0.7040  -36.9790   21.1800 C.ar    1  LIG   0.6480   0.4100 
20    N4       1.7670  -37.6730   21.8260 N.pl3   1  LIG  -0.6924  -0.3690 
21    C11      2.7540  -36.8570   22.5840 C.ar    1  LIG   0.5805   0.4100 
22    C12      2.9040  -34.5090   25.6010 C.3     1  LIG  -0.0620   0.1435 
23    H7       2.2235  -33.7630   25.2820 H       1  LIG   0.0570   0.0000 
24    H8       2.4436  -35.1154   26.3371 H       1  LIG   0.0495   0.0000 
25    H9       3.7654  -34.0491   26.0108 H       1  LIG   0.0519   0.0000 
26    O1      -1.2400  -35.9060   23.9770 O.2     1  LIG  -0.6361  -0.5700 
27    C13      2.3440  -38.7570   21.0360 C.3     1  LIG   0.1354   0.0690 
28    H10      3.1238  -38.3754   20.4296 H       1  LIG   0.0981   0.1000 
29    C14      2.9380  -39.8900   21.8010 C.3     1  LIG  -0.1181  -0.2000 
30    H11      3.8890  -40.1268   21.3997 H       1  LIG   0.0732   0.1000 
31    H12      3.0430  -39.6129   22.8177 H       1  LIG   0.0789   0.1000 
32    C15      1.6390  -40.0610   21.0880 C.3     1  LIG  -0.1196  -0.2000 
33    H13      0.6832  -39.9283   21.5242 H       1  LIG   0.0807   0.1000 
34    H14      1.5292  -40.4423   20.1061 H       1  LIG   0.0733   0.1000 
@<TRIPOS>BOND
1     2     1     ar
2     3     2     1
3     4     2     ar
4     5     4     1
5     6     4     ar
6     7     6     ar
7     8     7     1
8     9     8     1
9     10    8     1
10    11    10    1
11    12    11    ar
12    13    12    1
13    14    12    ar
14    15    14    1
15    16    14    ar
16    17    16    1
17    18    16    ar
18    19    11    ar
19    19    18    ar
20    20    19    1
21    21    1     ar
22    21    7     ar
23    21    20    1
24    22    6     1
25    23    22    1
26    24    22    1
27    25    22    1
28    26    10    2
29    27    20    1
30    28    27    1
31    29    27    1
32    30    29    1
33    31    29    1
34    32    27    1
35    32    29    1
36    33    32    1
37    34    32    1
@<TRIPOS>SUBSTRUCTURE
1   LIG    1    
 
########## Name        : 1VRT.lig
########## Description : AM1BCC_CHARGES =  -0.0002 ORIGINAL_CHARGES =  -0.0000

@<TRIPOS>MOLECULE
1VRT.lig
34    37    1     0     0    
SMALL
USER_CHARGES
@<TRIPOS>ATOM
1     N1       4.0540  -36.9310   22.2210 N.ar    1  LIG  -0.6650  -0.6200 
2     C1       4.9660  -36.2380   22.9390 C.ar    1  LIG   0.3947   0.1600 
3     H1       6.0082  -36.2811   22.6707 H       1  LIG   0.0281   0.1500 
4     C2       4.6240  -35.4500   24.0360 C.ar    1  LIG  -0.2334  -0.1500 
5     H2       5.3884  -34.9151   24.5740 H       1  LIG   0.1480   0.1500 
6     C3       3.3050  -35.3690   24.4150 C.ar    1  LIG  -0.0698  -0.1435 
7     C4       2.3460  -36.0770   23.6860 C.ar    1  LIG  -0.0398   0.1170 
8     N2       0.9890  -36.0280   24.1030 N.am    1  LIG  -0.4596  -0.5470 
9     H3       0.7643  -35.9928   25.0860 H       1  LIG   0.3311   0.3700 
10    C5      -0.1450  -36.0180   23.4080 C.2     1  LIG   0.7361   0.5438 
11    C6      -0.1190  -36.0770   21.8860 C.ar    1  LIG  -0.2550   0.0862 
12    C7      -1.1230  -35.3990   21.1890 C.ar    1  LIG  -0.0321  -0.1500 
13    H4      -1.7552  -34.6955   21.7041 H       1  LIG   0.1623   0.1500 
14    C8      -1.2960  -35.6300   19.8690 C.ar    1  LIG  -0.2723  -0.1500 
15    H5      -2.0662  -35.1073   19.3273 H       1  LIG   0.1522   0.1500 
16    C9      -0.4670  -36.5450   19.2400 C.ar    1  LIG   0.4373   0.1600 
17    H6      -0.5947  -36.7554   18.1915 H       1  LIG   0.0280   0.1500 
18    N3       0.5220  -37.2120   19.8740 N.ar    1  LIG  -0.6893  -0.6200 
19    C10      0.7040  -36.9790   21.1800 C.ar    1  LIG   0.6480   0.4100 
20    N4       1.7670  -37.6730   21.8260 N.pl3   1  LIG  -0.6924  -0.3690 
21    C11      2.7540  -36.8570   22.5840 C.ar    1  LIG   0.5805   0.4100 
22    C12      2.9040  -34.5090   25.6010 C.3     1  LIG  -0.0620   0.1435 
23    H7       2.2235  -33.7630   25.2820 H       1  LIG   0.0570   0.0000 
24    H8       2.4436  -35.1154   26.3371 H       1  LIG   0.0495   0.0000 
25    H9       3.7654  -34.0491   26.0108 H       1  LIG   0.0519   0.0000 
26    O1      -1.2400  -35.9060   23.9770 O.2     1  LIG  -0.6361  -0.5700 
27    C13      2.3440  -38.7570   21.0360 C.3     1  LIG   0.1354   0.0690 
28    H10      3.1238  -38.3754   20.4296 H       1  LIG   0.0981   0.1000 
29    C14      2.9380  -39.8900   21.8010 C.3     1  LIG  -0.1181  -0.2000 
30    H11      3.8890  -40.1268   21.3997 H       1  LIG   0.0732   0.1000 
31    H12      3.0430  -39.6129   22.8177 H       1  LIG   0.0789   0.1000 
32    C15      1.6390  -40.0610   21.0880 C.3     1  LIG  -0.1196  -0.2000 
33    H13      0.6832  -39.9283   21.5242 H       1  LIG   0.0807   0.1000 
34    H14      1.5292  -40.4423   20.1061 H       1  LIG   0.0733   0.1000 
@<TRIPOS>BOND
1     2     1     ar
2     3     2     1
3     4     2     ar
4     5     4     1
5     6     4     ar
6     7     6     ar
7     8     7     1
8     9     8     1
9     10    8     1
10    11    10    1
11    12    11    ar
12    13    12    1
13    14    12    ar
14    15    14    1
15    16    14    ar
16    17    16    1
17    18    16    ar
18    19    11    ar
19    19    18    ar
20    20    19    1
21    21    1     ar
22    21    7     ar
23    21    20    1
24    22    6     1
25    23    22    1
26    24    22    1
27    25    22    1
28    26    10    2
29    27    20    1
30    28    27    1
31    29    27    1
32    30    29    1
33    31    29    1
34    32    27    1
35    32    29    1
36    33    32    1
37    34    32    1
@<TRIPOS>SUBSTRUCTURE
1   LIG    1    
 
########## Name        : 1VRT.lig
########## Description : AM1BCC_CHARGES =  -0.0002 ORIGINAL_CHARGES =  -0.0000

@<TRIPOS>MOLECULE
1VRT.lig
34    37    1     0     0    
SMALL
USER_CHARGES
@<TRIPOS>ATOM
1     N1       4.0540  -36.9310   22.2210 N.ar    1  LIG  -0.6650  -0.6200 
2     C1       4.9660  -36.2380   22.9390 C.ar    1  LIG   0.3947   0.1600 
3     H1       6.0082  -36.2811   22.6707 H       1  LIG   0.0281   0.1500 
4     C2       4.6240  -35.4500   24.0360 C.ar    1  LIG  -0.2334  -0.1500 
5     H2       5.3884  -34.9151   24.5740 H       1  LIG   0.1480   0.1500 
6     C3       3.3050  -35.3690   24.4150 C.ar    1  LIG  -0.0698  -0.1435 
7     C4       2.3460  -36.0770   23.6860 C.ar    1  LIG  -0.0398   0.1170 
8     N2       0.9890  -36.0280   24.1030 N.am    1  LIG  -0.4596  -0.5470 
9     H3       0.7643  -35.9928   25.0860 H       1  LIG   0.3311   0.3700 
10    C5      -0.1450  -36.0180   23.4080 C.2     1  LIG   0.7361   0.5438 
11    C6      -0.1190  -36.0770   21.8860 C.ar    1  LIG  -0.2550   0.0862 
12    C7      -1.1230  -35.3990   21.1890 C.ar    1  LIG  -0.0321  -0.1500 
13    H4      -1.7552  -34.6955   21.7041 H       1  LIG   0.1623   0.1500 
14    C8      -1.2960  -35.6300   19.8690 C.ar    1  LIG  -0.2723  -0.1500 
15    H5      -2.0662  -35.1073   19.3273 H       1  LIG   0.1522   0.1500 
16    C9      -0.4670  -36.5450   19.2400 C.ar    1  LIG   0.4373   0.1600 
17    H6      -0.5947  -36.7554   18.1915 H       1  LIG   0.0280   0.1500 
18    N3       0.5220  -37.2120   19.8740 N.ar    1  LIG  -0.6893  -0.6200 
19    C10      0.7040  -36.9790   21.1800 C.ar    1  LIG   0.6480   0.4100 
20    N4       1.7670  -37.6730   21.8260 N.pl3   1  LIG  -0.6924  -0.3690 
21    C11      2.7540  -36.8570   22.5840 C.ar    1  LIG   0.5805   0.4100 
22    C12      2.9040  -34.5090   25.6010 C.3     1  LIG  -0.0620   0.1435 
23    H7       2.2235  -33.7630   25.2820 H       1  LIG   0.0570   0.0000 
24    H8       2.4436  -35.1154   26.3371 H       1  LIG   0.0495   0.0000 
25    H9       3.7654  -34.0491   26.0108 H       1  LIG   0.0519   0.0000 
26    O1      -1.2400  -35.9060   23.9770 O.2     1  LIG  -0.6361  -0.5700 
27    C13      2.3440  -38.7570   21.0360 C.3     1  LIG   0.1354   0.0690 
28    H10      3.1238  -38.3754   20.4296 H       1  LIG   0.0981   0.1000 
29    C14      2.9380  -39.8900   21.8010 C.3     1  LIG  -0.1181  -0.2000 
30    H11      3.8890  -40.1268   21.3997 H       1  LIG   0.0732   0.1000 
31    H12      3.0430  -39.6129   22.8177 H       1  LIG   0.0789   0.1000 
32    C15      1.6390  -40.0610   21.0880 C.3     1  LIG  -0.1196  -0.2000 
33    H13      0.6832  -39.9283   21.5242 H       1  LIG   0.0807   0.1000 
34    H14      1.5292  -40.4423   20.1061 H       1  LIG   0.0733   0.1000 
@<TRIPOS>BOND
1     2     1     ar
2     3     2     1
3     4     2     ar
4     5     4     1
5     6     4     ar
6     7     6     ar
7     8     7     1
8     9     8     1
9     10    8     1
10    11    10    1
11    12    11    ar
12    13    12    1
13    14    12    ar
14    15    14    1
15    16    14    ar
16    17    16    1
17    18    16    ar
18    19    11    ar
19    19    18    ar
20    20    19    1
21    21    1     ar
22    21    7     ar
23    21    20    1
24    22    6     1
25    23    22    1
26    24    22    1
27    25    22    1
28    26    10    2
29    27    20    1
30    28    27    1
31    29    27    1
32    30    29    1
33    31    29    1
34    32    27    1
35    32    29    1
36    33    32    1
37    34    32    1
@<TRIPOS>SUBSTRUCTURE
1   LIG    1    
 
########## Name        : 1VRT.lig
########## Description : AM1BCC_CHARGES =  -0.0002 ORIGINAL_CHARGES =  -0.0000

@<TRIPOS>MOLECULE
1VRT.lig
34    37    1     0     0    
SMALL
USER_CHARGES
@<TRIPOS>ATOM
1     N1       4.0540  -36.9310   22.2210 N.ar    1  LIG  -0.6650  -0.6200 
2     C1       4.9660  -36.2380   22.9390 C.ar    1  LIG   0.3947   0.1600 
3     H1       6.0082  -36.2811   22.6707 H       1  LIG   0.0281   0.1500 
4     C2       4.6240  -35.4500   24.0360 C.ar    1  LIG  -0.2334  -0.1500 
5     H2       5.3884  -34.9151   24.5740 H       1  LIG   0.1480   0.1500 
6     C3       3.3050  -35.3690   24.4150 C.ar    1  LIG  -0.0698  -0.1435 
7     C4       2.3460  -36.0770   23.6860 C.ar    1  LIG  -0.0398   0.1170 
8     N2       0.9890  -36.0280   24.1030 N.am    1  LIG  -0.4596  -0.5470 
9     H3       0.7643  -35.9928   25.0860 H       1  LIG   0.3311   0.3700 
10    C5      -0.1450  -36.0180   23.4080 C.2     1  LIG   0.7361   0.5438 
11    C6      -0.1190  -36.0770   21.8860 C.ar    1  LIG  -0.2550   0.0862 
12    C7      -1.1230  -35.3990   21.1890 C.ar    1  LIG  -0.0321  -0.1500 
13    H4      -1.7552  -34.6955   21.7041 H       1  LIG   0.1623   0.1500 
14    C8      -1.2960  -35.6300   19.8690 C.ar    1  LIG  -0.2723  -0.1500 
15    H5      -2.0662  -35.1073   19.3273 H       1  LIG   0.1522   0.1500 
16    C9      -0.4670  -36.5450   19.2400 C.ar    1  LIG   0.4373   0.1600 
17    H6      -0.5947  -36.7554   18.1915 H       1  LIG   0.0280   0.1500 
18    N3       0.5220  -37.2120   19.8740 N.ar    1  LIG  -0.6893  -0.6200 
19    C10      0.7040  -36.9790   21.1800 C.ar    1  LIG   0.6480   0.4100 
20    N4       1.7670  -37.6730   21.8260 N.pl3   1  LIG  -0.6924  -0.3690 
21    C11      2.7540  -36.8570   22.5840 C.ar    1  LIG   0.5805   0.4100 
22    C12      2.9040  -34.5090   25.6010 C.3     1  LIG  -0.0620   0.1435 
23    H7       2.2235  -33.7630   25.2820 H       1  LIG   0.0570   0.0000 
24    H8       2.4436  -35.1154   26.3371 H       1  LIG   0.0495   0.0000 
25    H9       3.7654  -34.0491   26.0108 H       1  LIG   0.0519   0.0000 
26    O1      -1.2400  -35.9060   23.9770 O.2     1  LIG  -0.6361  -0.5700 
27    C13      2.3440  -38.7570   21.0360 C.3     1  LIG   0.1354   0.0690 
28    H10      3.1238  -38.3754   20.4296 H       1  LIG   0.0981   0.1000 
29    C14      2.9380  -39.8900   21.8010 C.3     1  LIG  -0.1181  -0.2000 
30    H11      3.8890  -40.1268   21.3997 H       1  LIG   0.0732   0.1000 
31    H12      3.0430  -39.6129   22.8177 H       1  LIG   0.0789   0.1000 
32    C15      1.6390  -40.0610   21.0880 C.3     1  LIG  -0.1196  -0.2000 
33    H13      0.6832  -39.9283   21.5242 H       1  LIG   0.0807   0.1000 
34    H14      1.5292  -40.4423   20.1061 H       1  LIG   0.0733   0.1000 
@<TRIPOS>BOND
1     2     1     ar
2     3     2     1
3     4     2     ar
4     5     4     1
5     6     4     ar
6     7     6     ar
7     8     7     1
8     9     8     1
9     10    8     1
10    11    10    1
11    12    11    ar
12    13    12    1
13    14    12    ar
14    15    14    1
15    16    14    ar
16    17    16    1
17    18    16    ar
18    19    11    ar
19    19    18    ar
20    20    19    1
21    21    1     ar
22    21    7     ar
23    21    20    1
24    22    6     1
25    23    22    1
26    24    22    1
27    25    22    1
28    26    10    2
29    27    20    1
30    28    27    1
31    29    27    1
32    30    29    1
33    31    29    1
34    32    27    1
35    32    29    1
36    33    32    1
37    34    32    1
@<TRIPOS>SUBSTRUCTURE
1   LIG    1    
 
########## Name        : 1VRT.lig
########## Description : AM1BCC_CHARGES =  -0.0002 ORIGINAL_CHARGES =  -0.0000

@<TRIPOS>MOLECULE
1VRT.lig
34    37    1     0     0    
SMALL
USER_CHARGES
@<TRIPOS>ATOM
1     N1       4.0540  -36.9310   22.2210 N.ar    1  LIG  -0.6650  -0.6200 
2     C1       4.9660  -36.2380   22.9390 C.ar    1  LIG   0.3947   0.1600 
3     H1       6.0082  -36.2811   22.6707 H       1  LIG   0.0281   0.1500 
4     C2       4.6240  -35.4500   24.0360 C.ar    1  LIG  -0.2334  -0.1500 
5     H2       5.3884  -34.9151   24.5740 H       1  LIG   0.1480   0.1500 
6     C3       3.3050  -35.3690   24.4150 C.ar    1  LIG  -0.0698  -0.1435 
7     C4       2.3460  -36.0770   23.6860 C.ar    1  LIG  -0.0398   0.1170 
8     N2       0.9890  -36.0280   24.1030 N.am    1  LIG  -0.4596  -0.5470 
9     H3       0.7643  -35.9928   25.0860 H       1  LIG   0.3311   0.3700 
10    C5      -0.1450  -36.0180   23.4080 C.2     1  LIG   0.7361   0.5438 
11    C6      -0.1190  -36.0770   21.8860 C.ar    1  LIG  -0.2550   0.0862 
12    C7      -1.1230  -35.3990   21.1890 C.ar    1  LIG  -0.0321  -0.1500 
13    H4      -1.7552  -34.6955   21.7041 H       1  LIG   0.1623   0.1500 
14    C8      -1.2960  -35.6300   19.8690 C.ar    1  LIG  -0.2723  -0.1500 
15    H5      -2.0662  -35.1073   19.3273 H       1  LIG   0.1522   0.1500 
16    C9      -0.4670  -36.5450   19.2400 C.ar    1  LIG   0.4373   0.1600 
17    H6      -0.5947  -36.7554   18.1915 H       1  LIG   0.0280   0.1500 
18    N3       0.5220  -37.2120   19.8740 N.ar    1  LIG  -0.6893  -0.6200 
19    C10      0.7040  -36.9790   21.1800 C.ar    1  LIG   0.6480   0.4100 
20    N4       1.7670  -37.6730   21.8260 N.pl3   1  LIG  -0.6924  -0.3690 
21    C11      2.7540  -36.8570   22.5840 C.ar    1  LIG   0.5805   0.4100 
22    C12      2.9040  -34.5090   25.6010 C.3     1  LIG  -0.0620   0.1435 
23    H7       2.2235  -33.7630   25.2820 H       1  LIG   0.0570   0.0000 
24    H8       2.4436  -35.1154   26.3371 H       1  LIG   0.0495   0.0000 
25    H9       3.7654  -34.0491   26.0108 H       1  LIG   0.0519   0.0000 
26    O1      -1.2400  -35.9060   23.9770 O.2     1  LIG  -0.6361  -0.5700 
27    C13      2.3440  -38.7570   21.0360 C.3     1  LIG   0.1354   0.0690 
28    H10      3.1238  -38.3754   20.4296 H       1  LIG   0.0981   0.1000 
29    C14      2.9380  -39.8900   21.8010 C.3     1  LIG  -0.1181  -0.2000 
30    H11      3.8890  -40.1268   21.3997 H       1  LIG   0.0732   0.1000 
31    H12      3.0430  -39.6129   22.8177 H       1  LIG   0.0789   0.1000 
32    C15      1.6390  -40.0610   21.0880 C.3     1  LIG  -0.1196  -0.2000 
33    H13      0.6832  -39.9283   21.5242 H       1  LIG   0.0807   0.1000 
34    H14      1.5292  -40.4423   20.1061 H       1  LIG   0.0733   0.1000 
@<TRIPOS>BOND
1     2     1     ar
2     3     2     1
3     4     2     ar
4     5     4     1
5     6     4     ar
6     7     6     ar
7     8     7     1
8     9     8     1
9     10    8     1
10    11    10    1
11    12    11    ar
12    13    12    1
13    14    12    ar
14    15    14    1
15    16    14    ar
16    17    16    1
17    18    16    ar
18    19    11    ar
19    19    18    ar
20    20    19    1
21    21    1     ar
22    21    7     ar
23    21    20    1
24    22    6     1
25    23    22    1
26    24    22    1
27    25    22    1
28    26    10    2
29    27    20    1
30    28    27    1
31    29    27    1
32    30    29    1
33    31    29    1
34    32    27    1
35    32    29    1
36    33    32    1
37    34    32    1
@<TRIPOS>SUBSTRUCTURE
1   LIG    1    
 
########## Name        : 1VRT.lig
########## Description : AM1BCC_CHARGES =  -0.0002 ORIGINAL_CHARGES =  -0.0000

@<TRIPOS>MOLECULE
1VRT.lig
34    37    1     0     0    
SMALL
USER_CHARGES
@<TRIPOS>ATOM
1     N1       4.0540  -36.9310   22.2210 N.ar    1  LIG  -0.6650  -0.6200 
2     C1       4.9660  -36.2380   22.9390 C.ar    1  LIG   0.3947   0.1600 
3     H1       6.0082  -36.2811   22.6707 H       1  LIG   0.0281   0.1500 
4     C2       4.6240  -35.4500   24.0360 C.ar    1  LIG  -0.2334  -0.1500 
5     H2       5.3884  -34.9151   24.5740 H       1  LIG   0.1480   0.1500 
6     C3       3.3050  -35.3690   24.4150 C.ar    1  LIG  -0.0698  -0.1435 
7     C4       2.3460  -36.0770   23.6860 C.ar    1  LIG  -0.0398   0.1170 
8     N2       0.9890  -36.0280   24.1030 N.am    1  LIG  -0.4596  -0.5470 
9     H3       0.7643  -35.9928   25.0860 H       1  LIG   0.3311   0.3700 
10    C5      -0.1450  -36.0180   23.4080 C.2     1  LIG   0.7361   0.5438 
11    C6      -0.1190  -36.0770   21.8860 C.ar    1  LIG  -0.2550   0.0862 
12    C7      -1.1230  -35.3990   21.1890 C.ar    1  LIG  -0.0321  -0.1500 
13    H4      -1.7552  -34.6955   21.7041 H       1  LIG   0.1623   0.1500 
14    C8      -1.2960  -35.6300   19.8690 C.ar    1  LIG  -0.2723  -0.1500 
15    H5      -2.0662  -35.1073   19.3273 H       1  LIG   0.1522   0.1500 
16    C9      -0.4670  -36.5450   19.2400 C.ar    1  LIG   0.4373   0.1600 
17    H6      -0.5947  -36.7554   18.1915 H       1  LIG   0.0280   0.1500 
18    N3       0.5220  -37.2120   19.8740 N.ar    1  LIG  -0.6893  -0.6200 
19    C10      0.7040  -36.9790   21.1800 C.ar    1  LIG   0.6480   0.4100 
20    N4       1.7670  -37.6730   21.8260 N.pl3   1  LIG  -0.6924  -0.3690 
21    C11      2.7540  -36.8570   22.5840 C.ar    1  LIG   0.5805   0.4100 
22    C12      2.9040  -34.5090   25.6010 C.3     1  LIG  -0.0620   0.1435 
23    H7       2.2235  -33.7630   25.2820 H       1  LIG   0.0570   0.0000 
24    H8       2.4436  -35.1154   26.3371 H       1  LIG   0.0495   0.0000 
25    H9       3.7654  -34.0491   26.0108 H       1  LIG   0.0519   0.0000 
26    O1      -1.2400  -35.9060   23.9770 O.2     1  LIG  -0.6361  -0.5700 
27    C13      2.3440  -38.7570   21.0360 C.3     1  LIG   0.1354   0.0690 
28    H10      3.1238  -38.3754   20.4296 H       1  LIG   0.0981   0.1000 
29    C14      2.9380  -39.8900   21.8010 C.3     1  LIG  -0.1181  -0.2000 
30    H11      3.8890  -40.1268   21.3997 H       1  LIG   0.0732   0.1000 
31    H12      3.0430  -39.6129   22.8177 H       1  LIG   0.0789   0.1000 
32    C15      1.6390  -40.0610   21.0880 C.3     1  LIG  -0.1196  -0.2000 
33    H13      0.6832  -39.9283   21.5242 H       1  LIG   0.0807   0.1000 
34    H14      1.5292  -40.4423   20.1061 H       1  LIG   0.0733   0.1000 
@<TRIPOS>BOND
1     2     1     ar
2     3     2     1
3     4     2     ar
4     5     4     1
5     6     4     ar
6     7     6     ar
7     8     7     1
8     9     8     1
9     10    8     1
10    11    10    1
11    12    11    ar
12    13    12    1
13    14    12    ar
14    15    14    1
15    16    14    ar
16    17    16    1
17    18    16    ar
18    19    11    ar
19    19    18    ar
20    20    19    1
21    21    1     ar
22    21    7     ar
23    21    20    1
24    22    6     1
25    23    22    1
26    24    22    1
27    25    22    1
28    26    10    2
29    27    20    1
30    28    27    1
31    29    27    1
32    30    29    1
33    31    29    1
34    32    27    1
35    32    29    1
36    33    32    1
37    34    32    1
@<TRIPOS>SUBSTRUCTURE
1   LIG    1    
 
########## Name        : 1VRT.lig
########## Description : AM1BCC_CHARGES =  -0.0002 ORIGINAL_CHARGES =  -0.0000

@<TRIPOS>MOLECULE
1VRT.lig
34    37    1     0     0    
SMALL
USER_CHARGES
@<TRIPOS>ATOM
1     N1       4.0540  -36.9310   22.2210 N.ar    1  LIG  -0.6650  -0.6200 
2     C1       4.9660  -36.2380   22.9390 C.ar    1  LIG   0.3947   0.1600 
3     H1       6.0082  -36.2811   22.6707 H       1  LIG   0.0281   0.1500 
4     C2       4.6240  -35.4500   24.0360 C.ar    1  LIG  -0.2334  -0.1500 
5     H2       5.3884  -34.9151   24.5740 H       1  LIG   0.1480   0.1500 
6     C3       3.3050  -35.3690   24.4150 C.ar    1  LIG  -0.0698  -0.1435 
7     C4       2.3460  -36.0770   23.6860 C.ar    1  LIG  -0.0398   0.1170 
8     N2       0.9890  -36.0280   24.1030 N.am    1  LIG  -0.4596  -0.5470 
9     H3       0.7643  -35.9928   25.0860 H       1  LIG   0.3311   0.3700 
10    C5      -0.1450  -36.0180   23.4080 C.2     1  LIG   0.7361   0.5438 
11    C6      -0.1190  -36.0770   21.8860 C.ar    1  LIG  -0.2550   0.0862 
12    C7      -1.1230  -35.3990   21.1890 C.ar    1  LIG  -0.0321  -0.1500 
13    H4      -1.7552  -34.6955   21.7041 H       1  LIG   0.1623   0.1500 
14    C8      -1.2960  -35.6300   19.8690 C.ar    1  LIG  -0.2723  -0.1500 
15    H5      -2.0662  -35.1073   19.3273 H       1  LIG   0.1522   0.1500 
16    C9      -0.4670  -36.5450   19.2400 C.ar    1  LIG   0.4373   0.1600 
17    H6      -0.5947  -36.7554   18.1915 H       1  LIG   0.0280   0.1500 
18    N3       0.5220  -37.2120   19.8740 N.ar    1  LIG  -0.6893  -0.6200 
19    C10      0.7040  -36.9790   21.1800 C.ar    1  LIG   0.6480   0.4100 
20    N4       1.7670  -37.6730   21.8260 N.pl3   1  LIG  -0.6924  -0.3690 
21    C11      2.7540  -36.8570   22.5840 C.ar    1  LIG   0.5805   0.4100 
22    C12      2.9040  -34.5090   25.6010 C.3     1  LIG  -0.0620   0.1435 
23    H7       2.2235  -33.7630   25.2820 H       1  LIG   0.0570   0.0000 
24    H8       2.4436  -35.1154   26.3371 H       1  LIG   0.0495   0.0000 
25    H9       3.7654  -34.0491   26.0108 H       1  LIG   0.0519   0.0000 
26    O1      -1.2400  -35.9060   23.9770 O.2     1  LIG  -0.6361  -0.5700 
27    C13      2.3440  -38.7570   21.0360 C.3     1  LIG   0.1354   0.0690 
28    H10      3.1238  -38.3754   20.4296 H       1  LIG   0.0981   0.1000 
29    C14      2.9380  -39.8900   21.8010 C.3     1  LIG  -0.1181  -0.2000 
30    H11      3.8890  -40.1268   21.3997 H       1  LIG   0.0732   0.1000 
31    H12      3.0430  -39.6129   22.8177 H       1  LIG   0.0789   0.1000 
32    C15      1.6390  -40.0610   21.0880 C.3     1  LIG  -0.1196  -0.2000 
33    H13      0.6832  -39.9283   21.5242 H       1  LIG   0.0807   0.1000 
34    H14      1.5292  -40.4423   20.1061 H       1  LIG   0.0733   0.1000 
@<TRIPOS>BOND
1     2     1     ar
2     3     2     1
3     4     2     ar
4     5     4     1
5     6     4     ar
6     7     6     ar
7     8     7     1
8     9     8     1
9     10    8     1
10    11    10    1
11    12    11    ar
12    13    12    1
13    14    12    ar
14    15    14    1
15    16    14    ar
16    17    16    1
17    18    16    ar
18    19    11    ar
19    19    18    ar
20    20    19    1
21    21    1     ar
22    21    7     ar
23    21    20    1
24    22    6     1
25    23    22    1
26    24    22    1
27    25    22    1
28    26    10    2
29    27    20    1
30    28    27    1
31    29    27    1
32    30    29    1
33    31    29    1
34    32    27    1
35    32    29    1
36    33    32    1
37    34    32    1
@<TRIPOS>SUBSTRUCTURE
1   LIG    1    
 
########## Name        : 1VRT.lig
########## Description : AM1BCC_CHARGES =  -0.0002 ORIGINAL_CHARGES =  -0.0000

@<TRIPOS>MOLECULE
1VRT.lig
34    37    1     0     0    
SMALL
USER_CHARGES
@<TRIPOS>ATOM
1     N1       4.0540  -36.9310   22.2210 N.ar    1  LIG  -0.6650  -0.6200 
2     C1       4.9660  -36.2380   22.9390 C.ar    1  LIG   0.3947   0.1600 
3     H1       6.0082  -36.2811   22.6707 H       1  LIG   0.0281   0.1500 
4     C2       4.6240  -35.4500   24.0360 C.ar    1  LIG  -0.2334  -0.1500 
5     H2       5.3884  -34.9151   24.5740 H       1  LIG   0.1480   0.1500 
6     C3       3.3050  -35.3690   24.4150 C.ar    1  LIG  -0.0698  -0.1435 
7     C4       2.3460  -36.0770   23.6860 C.ar    1  LIG  -0.0398   0.1170 
8     N2       0.9890  -36.0280   24.1030 N.am    1  LIG  -0.4596  -0.5470 
9     H3       0.7643  -35.9928   25.0860 H       1  LIG   0.3311   0.3700 
10    C5      -0.1450  -36.0180   23.4080 C.2     1  LIG   0.7361   0.5438 
11    C6      -0.1190  -36.0770   21.8860 C.ar    1  LIG  -0.2550   0.0862 
12    C7      -1.1230  -35.3990   21.1890 C.ar    1  LIG  -0.0321  -0.1500 
13    H4      -1.7552  -34.6955   21.7041 H       1  LIG   0.1623   0.1500 
14    C8      -1.2960  -35.6300   19.8690 C.ar    1  LIG  -0.2723  -0.1500 
15    H5      -2.0662  -35.1073   19.3273 H       1  LIG   0.1522   0.1500 
16    C9      -0.4670  -36.5450   19.2400 C.ar    1  LIG   0.4373   0.1600 
17    H6      -0.5947  -36.7554   18.1915 H       1  LIG   0.0280   0.1500 
18    N3       0.5220  -37.2120   19.8740 N.ar    1  LIG  -0.6893  -0.6200 
19    C10      0.7040  -36.9790   21.1800 C.ar    1  LIG   0.6480   0.4100 
20    N4       1.7670  -37.6730   21.8260 N.pl3   1  LIG  -0.6924  -0.3690 
21    C11      2.7540  -36.8570   22.5840 C.ar    1  LIG   0.5805   0.4100 
22    C12      2.9040  -34.5090   25.6010 C.3     1  LIG  -0.0620   0.1435 
23    H7       2.2235  -33.7630   25.2820 H       1  LIG   0.0570   0.0000 
24    H8       2.4436  -35.1154   26.3371 H       1  LIG   0.0495   0.0000 
25    H9       3.7654  -34.0491   26.0108 H       1  LIG   0.0519   0.0000 
26    O1      -1.2400  -35.9060   23.9770 O.2     1  LIG  -0.6361  -0.5700 
27    C13      2.3440  -38.7570   21.0360 C.3     1  LIG   0.1354   0.0690 
28    H10      3.1238  -38.3754   20.4296 H       1  LIG   0.0981   0.1000 
29    C14      2.9380  -39.8900   21.8010 C.3     1  LIG  -0.1181  -0.2000 
30    H11      3.8890  -40.1268   21.3997 H       1  LIG   0.0732   0.1000 
31    H12      3.0430  -39.6129   22.8177 H       1  LIG   0.0789   0.1000 
32    C15      1.6390  -40.0610   21.0880 C.3     1  LIG  -0.1196  -0.2000 
33    H13      0.6832  -39.9283   21.5242 H       1  LIG   0.0807   0.1000 
34    H14      1.5292  -40.4423   20.1061 H       1  LIG   0.0733   0.1000 
@<TRIPOS>BOND
1     2     1     ar
2     3     2     1
3     4     2     ar
4     5     4     1
5     6     4     ar
6     7     6     ar
7     8     7     1
8     9     8     1
9     10    8     1
10    11    10    1
11    12    11    ar
12    13    12    1
13    14    12    ar
14    15    14    1
15    16    14    ar
16    17    16    1
17    18    16    ar
18    19    11    ar
19    19    18    ar
20    20    19    1
21    21    1     ar
22    21    7     ar
23    21    20    1
24    22    6     1
25    23    22    1
26    24    22    1
27    25    22    1
28    26    10    2
29    27    20    1
30    28    27    1
31    29    27    1
32    30    29    1
33    31    29    1
34    32    27    1
35    32    29    1
36    33    32    1
37    34    32    1
@<TRIPOS>SUBSTRUCTURE
1   LIG    1    
 
########## Name        : 1VRT.lig
########## Description : AM1BCC_CHARGES =  -0.0002 ORIGINAL_CHARGES =  -0.0000

@<TRIPOS>MOLECULE
1VRT.lig
34    37    1     0     0    
SMALL
USER_CHARGES
@<TRIPOS>ATOM
1     N1       4.0540  -36.9310   22.2210 N.ar    1  LIG  -0.6650  -0.6200 
2     C1       4.9660  -36.2380   22.9390 C.ar    1  LIG   0.3947   0.1600 
3     H1       6.0082  -36.2811   22.6707 H       1  LIG   0.0281   0.1500 
4     C2       4.6240  -35.4500   24.0360 C.ar    1  LIG  -0.2334  -0.1500 
5     H2       5.3884  -34.9151   24.5740 H       1  LIG   0.1480   0.1500 
6     C3       3.3050  -35.3690   24.4150 C.ar    1  LIG  -0.0698  -0.1435 
7     C4       2.3460  -36.0770   23.6860 C.ar    1  LIG  -0.0398   0.1170 
8     N2       0.9890  -36.0280   24.1030 N.am    1  LIG  -0.4596  -0.5470 
9     H3       0.7643  -35.9928   25.0860 H       1  LIG   0.3311   0.3700 
10    C5      -0.1450  -36.0180   23.4080 C.2     1  LIG   0.7361   0.5438 
11    C6      -0.1190  -36.0770   21.8860 C.ar    1  LIG  -0.2550   0.0862 
12    C7      -1.1230  -35.3990   21.1890 C.ar    1  LIG  -0.0321  -0.1500 
13    H4      -1.7552  -34.6955   21.7041 H       1  LIG   0.1623   0.1500 
14    C8      -1.2960  -35.6300   19.8690 C.ar    1  LIG  -0.2723  -0.1500 
15    H5      -2.0662  -35.1073   19.3273 H       1  LIG   0.1522   0.1500 
16    C9      -0.4670  -36.5450   19.2400 C.ar    1  LIG   0.4373   0.1600 
17    H6      -0.5947  -36.7554   18.1915 H       1  LIG   0.0280   0.1500 
18    N3       0.5220  -37.2120   19.8740 N.ar    1  LIG  -0.6893  -0.6200 
19    C10      0.7040  -36.9790   21.1800 C.ar    1  LIG   0.6480   0.4100 
20    N4       1.7670  -37.6730   21.8260 N.pl3   1  LIG  -0.6924  -0.3690 
21    C11      2.7540  -36.8570   22.5840 C.ar    1  LIG   0.5805   0.4100 
22    C12      2.9040  -34.5090   25.6010 C.3     1  LIG  -0.0620   0.1435 
23    H7       2.2235  -33.7630   25.2820 H       1  LIG   0.0570   0.0000 
24    H8       2.4436  -35.1154   26.3371 H       1  LIG   0.0495   0.0000 
25    H9       3.7654  -34.0491   26.0108 H       1  LIG   0.0519   0.0000 
26    O1      -1.2400  -35.9060   23.9770 O.2     1  LIG  -0.6361  -0.5700 
27    C13      2.3440  -38.7570   21.0360 C.3     1  LIG   0.1354   0.0690 
28    H10      3.1238  -38.3754   20.4296 H       1  LIG   0.0981   0.1000 
29    C14      2.9380  -39.8900   21.8010 C.3     1  LIG  -0.1181  -0.2000 
30    H11      3.8890  -40.1268   21.3997 H       1  LIG   0.0732   0.1000 
31    H12      3.0430  -39.6129   22.8177 H       1  LIG   0.0789   0.1000 
32    C15      1.6390  -40.0610   21.0880 C.3     1  LIG  -0.1196  -0.2000 
33    H13      0.6832  -39.9283   21.5242 H       1  LIG   0.0807   0.1000 
34    H14      1.5292  -40.4423   20.1061 H       1  LIG   0.0733   0.1000 
@<TRIPOS>BOND
1     2     1     ar
2     3     2     1
3     4     2     ar
4     5     4     1
5     6     4     ar
6     7     6     ar
7     8     7     1
8     9     8     1
9     10    8     1
10    11    10    1
11    12    11    ar
12    13    12    1
13    14    12    ar
14    15    14    1
15    16    14    ar
16    17    16    1
17    18    16    ar
18    19    11    ar
19    19    18    ar
20    20    19    1
21    21    1     ar
22    21    7     ar
23    21    20    1
24    22    6     1
25    23    22    1
26    24    22    1
27    25    22    1
28    26    10    2
29    27    20    1
30    28    27    1
31    29    27    1
32    30    29    1
33    31    29    1
34    32    27    1
35    32    29    1
36    33    32    1
37    34    32    1
@<TRIPOS>SUBSTRUCTURE
1   LIG    1    
 
########## Name        : 1VRT.lig
########## Description : AM1BCC_CHARGES =  -0.0002 ORIGINAL_CHARGES =  -0.0000

@<TRIPOS>MOLECULE
1VRT.lig
34    37    1     0     0    
SMALL
USER_CHARGES
@<TRIPOS>ATOM
1     N1       4.0540  -36.9310   22.2210 N.ar    1  LIG  -0.6650  -0.6200 
2     C1       4.9660  -36.2380   22.9390 C.ar    1  LIG   0.3947   0.1600 
3     H1       6.0082  -36.2811   22.6707 H       1  LIG   0.0281   0.1500 
4     C2       4.6240  -35.4500   24.0360 C.ar    1  LIG  -0.2334  -0.1500 
5     H2       5.3884  -34.9151   24.5740 H       1  LIG   0.1480   0.1500 
6     C3       3.3050  -35.3690   24.4150 C.ar    1  LIG  -0.0698  -0.1435 
7     C4       2.3460  -36.0770   23.6860 C.ar    1  LIG  -0.0398   0.1170 
8     N2       0.9890  -36.0280   24.1030 N.am    1  LIG  -0.4596  -0.5470 
9     H3       0.7643  -35.9928   25.0860 H       1  LIG   0.3311   0.3700 
10    C5      -0.1450  -36.0180   23.4080 C.2     1  LIG   0.7361   0.5438 
11    C6      -0.1190  -36.0770   21.8860 C.ar    1  LIG  -0.2550   0.0862 
12    C7      -1.1230  -35.3990   21.1890 C.ar    1  LIG  -0.0321  -0.1500 
13    H4      -1.7552  -34.6955   21.7041 H       1  LIG   0.1623   0.1500 
14    C8      -1.2960  -35.6300   19.8690 C.ar    1  LIG  -0.2723  -0.1500 
15    H5      -2.0662  -35.1073   19.3273 H       1  LIG   0.1522   0.1500 
16    C9      -0.4670  -36.5450   19.2400 C.ar    1  LIG   0.4373   0.1600 
17    H6      -0.5947  -36.7554   18.1915 H       1  LIG   0.0280   0.1500 
18    N3       0.5220  -37.2120   19.8740 N.ar    1  LIG  -0.6893  -0.6200 
19    C10      0.7040  -36.9790   21.1800 C.ar    1  LIG   0.6480   0.4100 
20    N4       1.7670  -37.6730   21.8260 N.pl3   1  LIG  -0.6924  -0.3690 
21    C11      2.7540  -36.8570   22.5840 C.ar    1  LIG   0.5805   0.4100 
22    C12      2.9040  -34.5090   25.6010 C.3     1  LIG  -0.0620   0.1435 
23    H7       2.2235  -33.7630   25.2820 H       1  LIG   0.0570   0.0000 
24    H8       2.4436  -35.1154   26.3371 H       1  LIG   0.0495   0.0000 
25    H9       3.7654  -34.0491   26.0108 H       1  LIG   0.0519   0.0000 
26    O1      -1.2400  -35.9060   23.9770 O.2     1  LIG  -0.6361  -0.5700 
27    C13      2.3440  -38.7570   21.0360 C.3     1  LIG   0.1354   0.0690 
28    H10      3.1238  -38.3754   20.4296 H       1  LIG   0.0981   0.1000 
29    C14      2.9380  -39.8900   21.8010 C.3     1  LIG  -0.1181  -0.2000 
30    H11      3.8890  -40.1268   21.3997 H       1  LIG   0.0732   0.1000 
31    H12      3.0430  -39.6129   22.8177 H       1  LIG   0.0789   0.1000 
32    C15      1.6390  -40.0610   21.0880 C.3     1  LIG  -0.1196  -0.2000 
33    H13      0.6832  -39.9283   21.5242 H       1  LIG   0.0807   0.1000 
34    H14      1.5292  -40.4423   20.1061 H       1  LIG   0.0733   0.1000 
@<TRIPOS>BOND
1     2     1     ar
2     3     2     1
3     4     2     ar
4     5     4     1
5     6     4     ar
6     7     6     ar
7     8     7     1
8     9     8     1
9     10    8     1
10    11    10    1
11    12    11    ar
12    13    12    1
13    14    12    ar
14    15    14    1
15    16    14    ar
16    17    16    1
17    18    16    ar
18    19    11    ar
19    19    18    ar
20    20    19    1
21    21    1     ar
22    21    7     ar
23    21    20    1
24    22    6     1
25    23    22    1
26    24    22    1
27    25    22    1
28    26    10    2
29    27    20    1
30    28    27    1
31    29    27    1
32    30    29    1
33    31    29    1
34    32    27    1
35    32    29    1
36    33    32    1
37    34    32    1
@<TRIPOS>SUBSTRUCTURE
1   LIG    1    
 
########## Name        : 1VRT.lig
########## Description : AM1BCC_CHARGES =  -0.0002 ORIGINAL_CHARGES =  -0.0000

@<TRIPOS>MOLECULE
1VRT.lig
34    37    1     0     0    
SMALL
USER_CHARGES
@<TRIPOS>ATOM
1     N1       4.0540  -36.9310   22.2210 N.ar    1  LIG  -0.6650  -0.6200 
2     C1       4.9660  -36.2380   22.9390 C.ar    1  LIG   0.3947   0.1600 
3     H1       6.0082  -36.2811   22.6707 H       1  LIG   0.0281   0.1500 
4     C2       4.6240  -35.4500   24.0360 C.ar    1  LIG  -0.2334  -0.1500 
5     H2       5.3884  -34.9151   24.5740 H       1  LIG   0.1480   0.1500 
6     C3       3.3050  -35.3690   24.4150 C.ar    1  LIG  -0.0698  -0.1435 
7     C4       2.3460  -36.0770   23.6860 C.ar    1  LIG  -0.0398   0.1170 
8     N2       0.9890  -36.0280   24.1030 N.am    1  LIG  -0.4596  -0.5470 
9     H3       0.7643  -35.9928   25.0860 H       1  LIG   0.3311   0.3700 
10    C5      -0.1450  -36.0180   23.4080 C.2     1  LIG   0.7361   0.5438 
11    C6      -0.1190  -36.0770   21.8860 C.ar    1  LIG  -0.2550   0.0862 
12    C7      -1.1230  -35.3990   21.1890 C.ar    1  LIG  -0.0321  -0.1500 
13    H4      -1.7552  -34.6955   21.7041 H       1  LIG   0.1623   0.1500 
14    C8      -1.2960  -35.6300   19.8690 C.ar    1  LIG  -0.2723  -0.1500 
15    H5      -2.0662  -35.1073   19.3273 H       1  LIG   0.1522   0.1500 
16    C9      -0.4670  -36.5450   19.2400 C.ar    1  LIG   0.4373   0.1600 
17    H6      -0.5947  -36.7554   18.1915 H       1  LIG   0.0280   0.1500 
18    N3       0.5220  -37.2120   19.8740 N.ar    1  LIG  -0.6893  -0.6200 
19    C10      0.7040  -36.9790   21.1800 C.ar    1  LIG   0.6480   0.4100 
20    N4       1.7670  -37.6730   21.8260 N.pl3   1  LIG  -0.6924  -0.3690 
21    C11      2.7540  -36.8570   22.5840 C.ar    1  LIG   0.5805   0.4100 
22    C12      2.9040  -34.5090   25.6010 C.3     1  LIG  -0.0620   0.1435 
23    H7       2.2235  -33.7630   25.2820 H       1  LIG   0.0570   0.0000 
24    H8       2.4436  -35.1154   26.3371 H       1  LIG   0.0495   0.0000 
25    H9       3.7654  -34.0491   26.0108 H       1  LIG   0.0519   0.0000 
26    O1      -1.2400  -35.9060   23.9770 O.2     1  LIG  -0.6361  -0.5700 
27    C13      2.3440  -38.7570   21.0360 C.3     1  LIG   0.1354   0.0690 
28    H10      3.1238  -38.3754   20.4296 H       1  LIG   0.0981   0.1000 
29    C14      2.9380  -39.8900   21.8010 C.3     1  LIG  -0.1181  -0.2000 
30    H11      3.8890  -40.1268   21.3997 H       1  LIG   0.0732   0.1000 
31    H12      3.0430  -39.6129   22.8177 H       1  LIG   0.0789   0.1000 
32    C15      1.6390  -40.0610   21.0880 C.3     1  LIG  -0.1196  -0.2000 
33    H13      0.6832  -39.9283   21.5242 H       1  LIG   0.0807   0.1000 
34    H14      1.5292  -40.4423   20.1061 H       1  LIG   0.0733   0.1000 
@<TRIPOS>BOND
1     2     1     ar
2     3     2     1
3     4     2     ar
4     5     4     1
5     6     4     ar
6     7     6     ar
7     8     7     1
8     9     8     1
9     10    8     1
10    11    10    1
11    12    11    ar
12    13    12    1
13    14    12    ar
14    15    14    1
15    16    14    ar
16    17    16    1
17    18    16    ar
18    19    11    ar
19    19    18    ar
20    20    19    1
21    21    1     ar
22    21    7     ar
23    21    20    1
24    22    6     1
25    23    22    1
26    24    22    1
27    25    22    1
28    26    10    2
29    27    20    1
30    28    27    1
31    29    27    1
32    30    29    1
33    31    29    1
34    32    27    1
35    32    29    1
36    33    32    1
37    34    32    1
@<TRIPOS>SUBSTRUCTURE
1   LIG    1    
 
########## Name        : 1VRT.lig
########## Description : AM1BCC_CHARGES =  -0.0002 ORIGINAL_CHARGES =  -0.0000

@<TRIPOS>MOLECULE
1VRT.lig
34    37    1     0     0    
SMALL
USER_CHARGES
@<TRIPOS>ATOM
1     N1       4.0540  -36.9310   22.2210 N.ar    1  LIG  -0.6650  -0.6200 
2     C1       4.9660  -36.2380   22.9390 C.ar    1  LIG   0.3947   0.1600 
3     H1       6.0082  -36.2811   22.6707 H       1  LIG   0.0281   0.1500 
4     C2       4.6240  -35.4500   24.0360 C.ar    1  LIG  -0.2334  -0.1500 
5     H2       5.3884  -34.9151   24.5740 H       1  LIG   0.1480   0.1500 
6     C3       3.3050  -35.3690   24.4150 C.ar    1  LIG  -0.0698  -0.1435 
7     C4       2.3460  -36.0770   23.6860 C.ar    1  LIG  -0.0398   0.1170 
8     N2       0.9890  -36.0280   24.1030 N.am    1  LIG  -0.4596  -0.5470 
9     H3       0.7643  -35.9928   25.0860 H       1  LIG   0.3311   0.3700 
10    C5      -0.1450  -36.0180   23.4080 C.2     1  LIG   0.7361   0.5438 
11    C6      -0.1190  -36.0770   21.8860 C.ar    1  LIG  -0.2550   0.0862 
12    C7      -1.1230  -35.3990   21.1890 C.ar    1  LIG  -0.0321  -0.1500 
13    H4      -1.7552  -34.6955   21.7041 H       1  LIG   0.1623   0.1500 
14    C8      -1.2960  -35.6300   19.8690 C.ar    1  LIG  -0.2723  -0.1500 
15    H5      -2.0662  -35.1073   19.3273 H       1  LIG   0.1522   0.1500 
16    C9      -0.4670  -36.5450   19.2400 C.ar    1  LIG   0.4373   0.1600 
17    H6      -0.5947  -36.7554   18.1915 H       1  LIG   0.0280   0.1500 
18    N3       0.5220  -37.2120   19.8740 N.ar    1  LIG  -0.6893  -0.6200 
19    C10      0.7040  -36.9790   21.1800 C.ar    1  LIG   0.6480   0.4100 
20    N4       1.7670  -37.6730   21.8260 N.pl3   1  LIG  -0.6924  -0.3690 
21    C11      2.7540  -36.8570   22.5840 C.ar    1  LIG   0.5805   0.4100 
22    C12      2.9040  -34.5090   25.6010 C.3     1  LIG  -0.0620   0.1435 
23    H7       2.2235  -33.7630   25.2820 H       1  LIG   0.0570   0.0000 
24    H8       2.4436  -35.1154   26.3371 H       1  LIG   0.0495   0.0000 
25    H9       3.7654  -34.0491   26.0108 H       1  LIG   0.0519   0.0000 
26    O1      -1.2400  -35.9060   23.9770 O.2     1  LIG  -0.6361  -0.5700 
27    C13      2.3440  -38.7570   21.0360 C.3     1  LIG   0.1354   0.0690 
28    H10      3.1238  -38.3754   20.4296 H       1  LIG   0.0981   0.1000 
29    C14      2.9380  -39.8900   21.8010 C.3     1  LIG  -0.1181  -0.2000 
30    H11      3.8890  -40.1268   21.3997 H       1  LIG   0.0732   0.1000 
31    H12      3.0430  -39.6129   22.8177 H       1  LIG   0.0789   0.1000 
32    C15      1.6390  -40.0610   21.0880 C.3     1  LIG  -0.1196  -0.2000 
33    H13      0.6832  -39.9283   21.5242 H       1  LIG   0.0807   0.1000 
34    H14      1.5292  -40.4423   20.1061 H       1  LIG   0.0733   0.1000 
@<TRIPOS>BOND
1     2     1     ar
2     3     2     1
3     4     2     ar
4     5     4     1
5     6     4     ar
6     7     6     ar
7     8     7     1
8     9     8     1
9     10    8     1
10    11    10    1
11    12    11    ar
12    13    12    1
13    14    12    ar
14    15    14    1
15    16    14    ar
16    17    16    1
17    18    16    ar
18    19    11    ar
19    19    18    ar
20    20    19    1
21    21    1     ar
22    21    7     ar
23    21    20    1
24    22    6     1
25    23    22    1
26    24    22    1
27    25    22    1
28    26    10    2
29    27    20    1
30    28    27    1
31    29    27    1
32    30    29    1
33    31    29    1
34    32    27    1
35    32    29    1
36    33    32    1
37    34    32    1
@<TRIPOS>SUBSTRUCTURE
1   LIG    1    
 
########## Name        : 1VRT.lig
########## Description : AM1BCC_CHARGES =  -0.0002 ORIGINAL_CHARGES =  -0.0000

@<TRIPOS>MOLECULE
1VRT.lig
34    37    1     0     0    
SMALL
USER_CHARGES
@<TRIPOS>ATOM
1     N1       4.0540  -36.9310   22.2210 N.ar    1  LIG  -0.6650  -0.6200 
2     C1       4.9660  -36.2380   22.9390 C.ar    1  LIG   0.3947   0.1600 
3     H1       6.0082  -36.2811   22.6707 H       1  LIG   0.0281   0.1500 
4     C2       4.6240  -35.4500   24.0360 C.ar    1  LIG  -0.2334  -0.1500 
5     H2       5.3884  -34.9151   24.5740 H       1  LIG   0.1480   0.1500 
6     C3       3.3050  -35.3690   24.4150 C.ar    1  LIG  -0.0698  -0.1435 
7     C4       2.3460  -36.0770   23.6860 C.ar    1  LIG  -0.0398   0.1170 
8     N2       0.9890  -36.0280   24.1030 N.am    1  LIG  -0.4596  -0.5470 
9     H3       0.7643  -35.9928   25.0860 H       1  LIG   0.3311   0.3700 
10    C5      -0.1450  -36.0180   23.4080 C.2     1  LIG   0.7361   0.5438 
11    C6      -0.1190  -36.0770   21.8860 C.ar    1  LIG  -0.2550   0.0862 
12    C7      -1.1230  -35.3990   21.1890 C.ar    1  LIG  -0.0321  -0.1500 
13    H4      -1.7552  -34.6955   21.7041 H       1  LIG   0.1623   0.1500 
14    C8      -1.2960  -35.6300   19.8690 C.ar    1  LIG  -0.2723  -0.1500 
15    H5      -2.0662  -35.1073   19.3273 H       1  LIG   0.1522   0.1500 
16    C9      -0.4670  -36.5450   19.2400 C.ar    1  LIG   0.4373   0.1600 
17    H6      -0.5947  -36.7554   18.1915 H       1  LIG   0.0280   0.1500 
18    N3       0.5220  -37.2120   19.8740 N.ar    1  LIG  -0.6893  -0.6200 
19    C10      0.7040  -36.9790   21.1800 C.ar    1  LIG   0.6480   0.4100 
20    N4       1.7670  -37.6730   21.8260 N.pl3   1  LIG  -0.6924  -0.3690 
21    C11      2.7540  -36.8570   22.5840 C.ar    1  LIG   0.5805   0.4100 
22    C12      2.9040  -34.5090   25.6010 C.3     1  LIG  -0.0620   0.1435 
23    H7       2.2235  -33.7630   25.2820 H       1  LIG   0.0570   0.0000 
24    H8       2.4436  -35.1154   26.3371 H       1  LIG   0.0495   0.0000 
25    H9       3.7654  -34.0491   26.0108 H       1  LIG   0.0519   0.0000 
26    O1      -1.2400  -35.9060   23.9770 O.2     1  LIG  -0.6361  -0.5700 
27    C13      2.3440  -38.7570   21.0360 C.3     1  LIG   0.1354   0.0690 
28    H10      3.1238  -38.3754   20.4296 H       1  LIG   0.0981   0.1000 
29    C14      2.9380  -39.8900   21.8010 C.3     1  LIG  -0.1181  -0.2000 
30    H11      3.8890  -40.1268   21.3997 H       1  LIG   0.0732   0.1000 
31    H12      3.0430  -39.6129   22.8177 H       1  LIG   0.0789   0.1000 
32    C15      1.6390  -40.0610   21.0880 C.3     1  LIG  -0.1196  -0.2000 
33    H13      0.6832  -39.9283   21.5242 H       1  LIG   0.0807   0.1000 
34    H14      1.5292  -40.4423   20.1061 H       1  LIG   0.0733   0.1000 
@<TRIPOS>BOND
1     2     1     ar
2     3     2     1
3     4     2     ar
4     5     4     1
5     6     4     ar
6     7     6     ar
7     8     7     1
8     9     8     1
9     10    8     1
10    11    10    1
11    12    11    ar
12    13    12    1
13    14    12    ar
14    15    14    1
15    16    14    ar
16    17    16    1
17    18    16    ar
18    19    11    ar
19    19    18    ar
20    20    19    1
21    21    1     ar
22    21    7     ar
23    21    20    1
24    22    6     1
25    23    22    1
26    24    22    1
27    25    22    1
28    26    10    2
29    27    20    1
30    28    27    1
31    29    27    1
32    30    29    1
33    31    29    1
34    32    27    1
35    32    29    1
36    33    32    1
37    34    32    1
@<TRIPOS>SUBSTRUCTURE
1   LIG    1    
 
########## Name        : 1VRT.lig
########## Description : AM1BCC_CHARGES =  -0.0002 ORIGINAL_CHARGES =  -0.0000

@<TRIPOS>MOLECULE
1VRT.lig
34    37    1     0     0    
SMALL
USER_CHARGES
@<TRIPOS>ATOM
1     N1       4.0540  -36.9310   22.2210 N.ar    1  LIG  -0.6650  -0.6200 
2     C1       4.9660  -36.2380   22.9390 C.ar    1  LIG   0.3947   0.1600 
3     H1       6.0082  -36.2811   22.6707 H       1  LIG   0.0281   0.1500 
4     C2       4.6240  -35.4500   24.0360 C.ar    1  LIG  -0.2334  -0.1500 
5     H2       5.3884  -34.9151   24.5740 H       1  LIG   0.1480   0.1500 
6     C3       3.3050  -35.3690   24.4150 C.ar    1  LIG  -0.0698  -0.1435 
7     C4       2.3460  -36.0770   23.6860 C.ar    1  LIG  -0.0398   0.1170 
8     N2       0.9890  -36.0280   24.1030 N.am    1  LIG  -0.4596  -0.5470 
9     H3       0.7643  -35.9928   25.0860 H       1  LIG   0.3311   0.3700 
10    C5      -0.1450  -36.0180   23.4080 C.2     1  LIG   0.7361   0.5438 
11    C6      -0.1190  -36.0770   21.8860 C.ar    1  LIG  -0.2550   0.0862 
12    C7      -1.1230  -35.3990   21.1890 C.ar    1  LIG  -0.0321  -0.1500 
13    H4      -1.7552  -34.6955   21.7041 H       1  LIG   0.1623   0.1500 
14    C8      -1.2960  -35.6300   19.8690 C.ar    1  LIG  -0.2723  -0.1500 
15    H5      -2.0662  -35.1073   19.3273 H       1  LIG   0.1522   0.1500 
16    C9      -0.4670  -36.5450   19.2400 C.ar    1  LIG   0.4373   0.1600 
17    H6      -0.5947  -36.7554   18.1915 H       1  LIG   0.0280   0.1500 
18    N3       0.5220  -37.2120   19.8740 N.ar    1  LIG  -0.6893  -0.6200 
19    C10      0.7040  -36.9790   21.1800 C.ar    1  LIG   0.6480   0.4100 
20    N4       1.7670  -37.6730   21.8260 N.pl3   1  LIG  -0.6924  -0.3690 
21    C11      2.7540  -36.8570   22.5840 C.ar    1  LIG   0.5805   0.4100 
22    C12      2.9040  -34.5090   25.6010 C.3     1  LIG  -0.0620   0.1435 
23    H7       2.2235  -33.7630   25.2820 H       1  LIG   0.0570   0.0000 
24    H8       2.4436  -35.1154   26.3371 H       1  LIG   0.0495   0.0000 
25    H9       3.7654  -34.0491   26.0108 H       1  LIG   0.0519   0.0000 
26    O1      -1.2400  -35.9060   23.9770 O.2     1  LIG  -0.6361  -0.5700 
27    C13      2.3440  -38.7570   21.0360 C.3     1  LIG   0.1354   0.0690 
28    H10      3.1238  -38.3754   20.4296 H       1  LIG   0.0981   0.1000 
29    C14      2.9380  -39.8900   21.8010 C.3     1  LIG  -0.1181  -0.2000 
30    H11      3.8890  -40.1268   21.3997 H       1  LIG   0.0732   0.1000 
31    H12      3.0430  -39.6129   22.8177 H       1  LIG   0.0789   0.1000 
32    C15      1.6390  -40.0610   21.0880 C.3     1  LIG  -0.1196  -0.2000 
33    H13      0.6832  -39.9283   21.5242 H       1  LIG   0.0807   0.1000 
34    H14      1.5292  -40.4423   20.1061 H       1  LIG   0.0733   0.1000 
@<TRIPOS>BOND
1     2     1     ar
2     3     2     1
3     4     2     ar
4     5     4     1
5     6     4     ar
6     7     6     ar
7     8     7     1
8     9     8     1
9     10    8     1
10    11    10    1
11    12    11    ar
12    13    12    1
13    14    12    ar
14    15    14    1
15    16    14    ar
16    17    16    1
17    18    16    ar
18    19    11    ar
19    19    18    ar
20    20    19    1
21    21    1     ar
22    21    7     ar
23    21    20    1
24    22    6     1
25    23    22    1
26    24    22    1
27    25    22    1
28    26    10    2
29    27    20    1
30    28    27    1
31    29    27    1
32    30    29    1
33    31    29    1
34    32    27    1
35    32    29    1
36    33    32    1
37    34    32    1
@<TRIPOS>SUBSTRUCTURE
1   LIG    1    
 
########## Name        : 1VRT.lig
########## Description : AM1BCC_CHARGES =  -0.0002 ORIGINAL_CHARGES =  -0.0000

@<TRIPOS>MOLECULE
1VRT.lig
34    37    1     0     0    
SMALL
USER_CHARGES
@<TRIPOS>ATOM
1     N1       4.0540  -36.9310   22.2210 N.ar    1  LIG  -0.6650  -0.6200 
2     C1       4.9660  -36.2380   22.9390 C.ar    1  LIG   0.3947   0.1600 
3     H1       6.0082  -36.2811   22.6707 H       1  LIG   0.0281   0.1500 
4     C2       4.6240  -35.4500   24.0360 C.ar    1  LIG  -0.2334  -0.1500 
5     H2       5.3884  -34.9151   24.5740 H       1  LIG   0.1480   0.1500 
6     C3       3.3050  -35.3690   24.4150 C.ar    1  LIG  -0.0698  -0.1435 
7     C4       2.3460  -36.0770   23.6860 C.ar    1  LIG  -0.0398   0.1170 
8     N2       0.9890  -36.0280   24.1030 N.am    1  LIG  -0.4596  -0.5470 
9     H3       0.7643  -35.9928   25.0860 H       1  LIG   0.3311   0.3700 
10    C5      -0.1450  -36.0180   23.4080 C.2     1  LIG   0.7361   0.5438 
11    C6      -0.1190  -36.0770   21.8860 C.ar    1  LIG  -0.2550   0.0862 
12    C7      -1.1230  -35.3990   21.1890 C.ar    1  LIG  -0.0321  -0.1500 
13    H4      -1.7552  -34.6955   21.7041 H       1  LIG   0.1623   0.1500 
14    C8      -1.2960  -35.6300   19.8690 C.ar    1  LIG  -0.2723  -0.1500 
15    H5      -2.0662  -35.1073   19.3273 H       1  LIG   0.1522   0.1500 
16    C9      -0.4670  -36.5450   19.2400 C.ar    1  LIG   0.4373   0.1600 
17    H6      -0.5947  -36.7554   18.1915 H       1  LIG   0.0280   0.1500 
18    N3       0.5220  -37.2120   19.8740 N.ar    1  LIG  -0.6893  -0.6200 
19    C10      0.7040  -36.9790   21.1800 C.ar    1  LIG   0.6480   0.4100 
20    N4       1.7670  -37.6730   21.8260 N.pl3   1  LIG  -0.6924  -0.3690 
21    C11      2.7540  -36.8570   22.5840 C.ar    1  LIG   0.5805   0.4100 
22    C12      2.9040  -34.5090   25.6010 C.3     1  LIG  -0.0620   0.1435 
23    H7       2.2235  -33.7630   25.2820 H       1  LIG   0.0570   0.0000 
24    H8       2.4436  -35.1154   26.3371 H       1  LIG   0.0495   0.0000 
25    H9       3.7654  -34.0491   26.0108 H       1  LIG   0.0519   0.0000 
26    O1      -1.2400  -35.9060   23.9770 O.2     1  LIG  -0.6361  -0.5700 
27    C13      2.3440  -38.7570   21.0360 C.3     1  LIG   0.1354   0.0690 
28    H10      3.1238  -38.3754   20.4296 H       1  LIG   0.0981   0.1000 
29    C14      2.9380  -39.8900   21.8010 C.3     1  LIG  -0.1181  -0.2000 
30    H11      3.8890  -40.1268   21.3997 H       1  LIG   0.0732   0.1000 
31    H12      3.0430  -39.6129   22.8177 H       1  LIG   0.0789   0.1000 
32    C15      1.6390  -40.0610   21.0880 C.3     1  LIG  -0.1196  -0.2000 
33    H13      0.6832  -39.9283   21.5242 H       1  LIG   0.0807   0.1000 
34    H14      1.5292  -40.4423   20.1061 H       1  LIG   0.0733   0.1000 
@<TRIPOS>BOND
1     2     1     ar
2     3     2     1
3     4     2     ar
4     5     4     1
5     6     4     ar
6     7     6     ar
7     8     7     1
8     9     8     1
9     10    8     1
10    11    10    1
11    12    11    ar
12    13    12    1
13    14    12    ar
14    15    14    1
15    16    14    ar
16    17    16    1
17    18    16    ar
18    19    11    ar
19    19    18    ar
20    20    19    1
21    21    1     ar
22    21    7     ar
23    21    20    1
24    22    6     1
25    23    22    1
26    24    22    1
27    25    22    1
28    26    10    2
29    27    20    1
30    28    27    1
31    29    27    1
32    30    29    1
33    31    29    1
34    32    27    1
35    32    29    1
36    33    32    1
37    34    32    1
@<TRIPOS>SUBSTRUCTURE
1   LIG    1    
 
########## Name        : 1VRT.lig
########## Description : AM1BCC_CHARGES =  -0.0002 ORIGINAL_CHARGES =  -0.0000

@<TRIPOS>MOLECULE
1VRT.lig
34    37    1     0     0    
SMALL
USER_CHARGES
@<TRIPOS>ATOM
1     N1       4.0540  -36.9310   22.2210 N.ar    1  LIG  -0.6650  -0.6200 
2     C1       4.9660  -36.2380   22.9390 C.ar    1  LIG   0.3947   0.1600 
3     H1       6.0082  -36.2811   22.6707 H       1  LIG   0.0281   0.1500 
4     C2       4.6240  -35.4500   24.0360 C.ar    1  LIG  -0.2334  -0.1500 
5     H2       5.3884  -34.9151   24.5740 H       1  LIG   0.1480   0.1500 
6     C3       3.3050  -35.3690   24.4150 C.ar    1  LIG  -0.0698  -0.1435 
7     C4       2.3460  -36.0770   23.6860 C.ar    1  LIG  -0.0398   0.1170 
8     N2       0.9890  -36.0280   24.1030 N.am    1  LIG  -0.4596  -0.5470 
9     H3       0.7643  -35.9928   25.0860 H       1  LIG   0.3311   0.3700 
10    C5      -0.1450  -36.0180   23.4080 C.2     1  LIG   0.7361   0.5438 
11    C6      -0.1190  -36.0770   21.8860 C.ar    1  LIG  -0.2550   0.0862 
12    C7      -1.1230  -35.3990   21.1890 C.ar    1  LIG  -0.0321  -0.1500 
13    H4      -1.7552  -34.6955   21.7041 H       1  LIG   0.1623   0.1500 
14    C8      -1.2960  -35.6300   19.8690 C.ar    1  LIG  -0.2723  -0.1500 
15    H5      -2.0662  -35.1073   19.3273 H       1  LIG   0.1522   0.1500 
16    C9      -0.4670  -36.5450   19.2400 C.ar    1  LIG   0.4373   0.1600 
17    H6      -0.5947  -36.7554   18.1915 H       1  LIG   0.0280   0.1500 
18    N3       0.5220  -37.2120   19.8740 N.ar    1  LIG  -0.6893  -0.6200 
19    C10      0.7040  -36.9790   21.1800 C.ar    1  LIG   0.6480   0.4100 
20    N4       1.7670  -37.6730   21.8260 N.pl3   1  LIG  -0.6924  -0.3690 
21    C11      2.7540  -36.8570   22.5840 C.ar    1  LIG   0.5805   0.4100 
22    C12      2.9040  -34.5090   25.6010 C.3     1  LIG  -0.0620   0.1435 
23    H7       2.2235  -33.7630   25.2820 H       1  LIG   0.0570   0.0000 
24    H8       2.4436  -35.1154   26.3371 H       1  LIG   0.0495   0.0000 
25    H9       3.7654  -34.0491   26.0108 H       1  LIG   0.0519   0.0000 
26    O1      -1.2400  -35.9060   23.9770 O.2     1  LIG  -0.6361  -0.5700 
27    C13      2.3440  -38.7570   21.0360 C.3     1  LIG   0.1354   0.0690 
28    H10      3.1238  -38.3754   20.4296 H       1  LIG   0.0981   0.1000 
29    C14      2.9380  -39.8900   21.8010 C.3     1  LIG  -0.1181  -0.2000 
30    H11      3.8890  -40.1268   21.3997 H       1  LIG   0.0732   0.1000 
31    H12      3.0430  -39.6129   22.8177 H       1  LIG   0.0789   0.1000 
32    C15      1.6390  -40.0610   21.0880 C.3     1  LIG  -0.1196  -0.2000 
33    H13      0.6832  -39.9283   21.5242 H       1  LIG   0.0807   0.1000 
34    H14      1.5292  -40.4423   20.1061 H       1  LIG   0.0733   0.1000 
@<TRIPOS>BOND
1     2     1     ar
2     3     2     1
3     4     2     ar
4     5     4     1
5     6     4     ar
6     7     6     ar
7     8     7     1
8     9     8     1
9     10    8     1
10    11    10    1
11    12    11    ar
12    13    12    1
13    14    12    ar
14    15    14    1
15    16    14    ar
16    17    16    1
17    18    16    ar
18    19    11    ar
19    19    18    ar
20    20    19    1
21    21    1     ar
22    21    7     ar
23    21    20    1
24    22    6     1
25    23    22    1
26    24    22    1
27    25    22    1
28    26    10    2
29    27    20    1
30    28    27    1
31    29    27    1
32    30    29    1
33    31    29    1
34    32    27    1
35    32    29    1
36    33    32    1
37    34    32    1
@<TRIPOS>SUBSTRUCTURE
1   LIG    1    
 
########## Name        : 1VRT.lig
########## Description : AM1BCC_CHARGES =  -0.0002 ORIGINAL_CHARGES =  -0.0000

@<TRIPOS>MOLECULE
1VRT.lig
34    37    1     0     0    
SMALL
USER_CHARGES
@<TRIPOS>ATOM
1     N1       4.0540  -36.9310   22.2210 N.ar    1  LIG  -0.6650  -0.6200 
2     C1       4.9660  -36.2380   22.9390 C.ar    1  LIG   0.3947   0.1600 
3     H1       6.0082  -36.2811   22.6707 H       1  LIG   0.0281   0.1500 
4     C2       4.6240  -35.4500   24.0360 C.ar    1  LIG  -0.2334  -0.1500 
5     H2       5.3884  -34.9151   24.5740 H       1  LIG   0.1480   0.1500 
6     C3       3.3050  -35.3690   24.4150 C.ar    1  LIG  -0.0698  -0.1435 
7     C4       2.3460  -36.0770   23.6860 C.ar    1  LIG  -0.0398   0.1170 
8     N2       0.9890  -36.0280   24.1030 N.am    1  LIG  -0.4596  -0.5470 
9     H3       0.7643  -35.9928   25.0860 H       1  LIG   0.3311   0.3700 
10    C5      -0.1450  -36.0180   23.4080 C.2     1  LIG   0.7361   0.5438 
11    C6      -0.1190  -36.0770   21.8860 C.ar    1  LIG  -0.2550   0.0862 
12    C7      -1.1230  -35.3990   21.1890 C.ar    1  LIG  -0.0321  -0.1500 
13    H4      -1.7552  -34.6955   21.7041 H       1  LIG   0.1623   0.1500 
14    C8      -1.2960  -35.6300   19.8690 C.ar    1  LIG  -0.2723  -0.1500 
15    H5      -2.0662  -35.1073   19.3273 H       1  LIG   0.1522   0.1500 
16    C9      -0.4670  -36.5450   19.2400 C.ar    1  LIG   0.4373   0.1600 
17    H6      -0.5947  -36.7554   18.1915 H       1  LIG   0.0280   0.1500 
18    N3       0.5220  -37.2120   19.8740 N.ar    1  LIG  -0.6893  -0.6200 
19    C10      0.7040  -36.9790   21.1800 C.ar    1  LIG   0.6480   0.4100 
20    N4       1.7670  -37.6730   21.8260 N.pl3   1  LIG  -0.6924  -0.3690 
21    C11      2.7540  -36.8570   22.5840 C.ar    1  LIG   0.5805   0.4100 
22    C12      2.9040  -34.5090   25.6010 C.3     1  LIG  -0.0620   0.1435 
23    H7       2.2235  -33.7630   25.2820 H       1  LIG   0.0570   0.0000 
24    H8       2.4436  -35.1154   26.3371 H       1  LIG   0.0495   0.0000 
25    H9       3.7654  -34.0491   26.0108 H       1  LIG   0.0519   0.0000 
26    O1      -1.2400  -35.9060   23.9770 O.2     1  LIG  -0.6361  -0.5700 
27    C13      2.3440  -38.7570   21.0360 C.3     1  LIG   0.1354   0.0690 
28    H10      3.1238  -38.3754   20.4296 H       1  LIG   0.0981   0.1000 
29    C14      2.9380  -39.8900   21.8010 C.3     1  LIG  -0.1181  -0.2000 
30    H11      3.8890  -40.1268   21.3997 H       1  LIG   0.0732   0.1000 
31    H12      3.0430  -39.6129   22.8177 H       1  LIG   0.0789   0.1000 
32    C15      1.6390  -40.0610   21.0880 C.3     1  LIG  -0.1196  -0.2000 
33    H13      0.6832  -39.9283   21.5242 H       1  LIG   0.0807   0.1000 
34    H14      1.5292  -40.4423   20.1061 H       1  LIG   0.0733   0.1000 
@<TRIPOS>BOND
1     2     1     ar
2     3     2     1
3     4     2     ar
4     5     4     1
5     6     4     ar
6     7     6     ar
7     8     7     1
8     9     8     1
9     10    8     1
10    11    10    1
11    12    11    ar
12    13    12    1
13    14    12    ar
14    15    14    1
15    16    14    ar
16    17    16    1
17    18    16    ar
18    19    11    ar
19    19    18    ar
20    20    19    1
21    21    1     ar
22    21    7     ar
23    21    20    1
24    22    6     1
25    23    22    1
26    24    22    1
27    25    22    1
28    26    10    2
29    27    20    1
30    28    27    1
31    29    27    1
32    30    29    1
33    31    29    1
34    32    27    1
35    32    29    1
36    33    32    1
37    34    32    1
@<TRIPOS>SUBSTRUCTURE
1   LIG    1    
 
########## Name        : 1VRT.lig
########## Description : AM1BCC_CHARGES =  -0.0002 ORIGINAL_CHARGES =  -0.0000

@<TRIPOS>MOLECULE
1VRT.lig
34    37    1     0     0    
SMALL
USER_CHARGES
@<TRIPOS>ATOM
1     N1       4.0540  -36.9310   22.2210 N.ar    1  LIG  -0.6650  -0.6200 
2     C1       4.9660  -36.2380   22.9390 C.ar    1  LIG   0.3947   0.1600 
3     H1       6.0082  -36.2811   22.6707 H       1  LIG   0.0281   0.1500 
4     C2       4.6240  -35.4500   24.0360 C.ar    1  LIG  -0.2334  -0.1500 
5     H2       5.3884  -34.9151   24.5740 H       1  LIG   0.1480   0.1500 
6     C3       3.3050  -35.3690   24.4150 C.ar    1  LIG  -0.0698  -0.1435 
7     C4       2.3460  -36.0770   23.6860 C.ar    1  LIG  -0.0398   0.1170 
8     N2       0.9890  -36.0280   24.1030 N.am    1  LIG  -0.4596  -0.5470 
9     H3       0.7643  -35.9928   25.0860 H       1  LIG   0.3311   0.3700 
10    C5      -0.1450  -36.0180   23.4080 C.2     1  LIG   0.7361   0.5438 
11    C6      -0.1190  -36.0770   21.8860 C.ar    1  LIG  -0.2550   0.0862 
12    C7      -1.1230  -35.3990   21.1890 C.ar    1  LIG  -0.0321  -0.1500 
13    H4      -1.7552  -34.6955   21.7041 H       1  LIG   0.1623   0.1500 
14    C8      -1.2960  -35.6300   19.8690 C.ar    1  LIG  -0.2723  -0.1500 
15    H5      -2.0662  -35.1073   19.3273 H       1  LIG   0.1522   0.1500 
16    C9      -0.4670  -36.5450   19.2400 C.ar    1  LIG   0.4373   0.1600 
17    H6      -0.5947  -36.7554   18.1915 H       1  LIG   0.0280   0.1500 
18    N3       0.5220  -37.2120   19.8740 N.ar    1  LIG  -0.6893  -0.6200 
19    C10      0.7040  -36.9790   21.1800 C.ar    1  LIG   0.6480   0.4100 
20    N4       1.7670  -37.6730   21.8260 N.pl3   1  LIG  -0.6924  -0.3690 
21    C11      2.7540  -36.8570   22.5840 C.ar    1  LIG   0.5805   0.4100 
22    C12      2.9040  -34.5090   25.6010 C.3     1  LIG  -0.0620   0.1435 
23    H7       2.2235  -33.7630   25.2820 H       1  LIG   0.0570   0.0000 
24    H8       2.4436  -35.1154   26.3371 H       1  LIG   0.0495   0.0000 
25    H9       3.7654  -34.0491   26.0108 H       1  LIG   0.0519   0.0000 
26    O1      -1.2400  -35.9060   23.9770 O.2     1  LIG  -0.6361  -0.5700 
27    C13      2.3440  -38.7570   21.0360 C.3     1  LIG   0.1354   0.0690 
28    H10      3.1238  -38.3754   20.4296 H       1  LIG   0.0981   0.1000 
29    C14      2.9380  -39.8900   21.8010 C.3     1  LIG  -0.1181  -0.2000 
30    H11      3.8890  -40.1268   21.3997 H       1  LIG   0.0732   0.1000 
31    H12      3.0430  -39.6129   22.8177 H       1  LIG   0.0789   0.1000 
32    C15      1.6390  -40.0610   21.0880 C.3     1  LIG  -0.1196  -0.2000 
33    H13      0.6832  -39.9283   21.5242 H       1  LIG   0.0807   0.1000 
34    H14      1.5292  -40.4423   20.1061 H       1  LIG   0.0733   0.1000 
@<TRIPOS>BOND
1     2     1     ar
2     3     2     1
3     4     2     ar
4     5     4     1
5     6     4     ar
6     7     6     ar
7     8     7     1
8     9     8     1
9     10    8     1
10    11    10    1
11    12    11    ar
12    13    12    1
13    14    12    ar
14    15    14    1
15    16    14    ar
16    17    16    1
17    18    16    ar
18    19    11    ar
19    19    18    ar
20    20    19    1
21    21    1     ar
22    21    7     ar
23    21    20    1
24    22    6     1
25    23    22    1
26    24    22    1
27    25    22    1
28    26    10    2
29    27    20    1
30    28    27    1
31    29    27    1
32    30    29    1
33    31    29    1
34    32    27    1
35    32    29    1
36    33    32    1
37    34    32    1
@<TRIPOS>SUBSTRUCTURE
1   LIG    1    
 
########## Name        : 1VRT.lig
########## Description : AM1BCC_CHARGES =  -0.0002 ORIGINAL_CHARGES =  -0.0000

@<TRIPOS>MOLECULE
1VRT.lig
34    37    1     0     0    
SMALL
USER_CHARGES
@<TRIPOS>ATOM
1     N1       4.0540  -36.9310   22.2210 N.ar    1  LIG  -0.6650  -0.6200 
2     C1       4.9660  -36.2380   22.9390 C.ar    1  LIG   0.3947   0.1600 
3     H1       6.0082  -36.2811   22.6707 H       1  LIG   0.0281   0.1500 
4     C2       4.6240  -35.4500   24.0360 C.ar    1  LIG  -0.2334  -0.1500 
5     H2       5.3884  -34.9151   24.5740 H       1  LIG   0.1480   0.1500 
6     C3       3.3050  -35.3690   24.4150 C.ar    1  LIG  -0.0698  -0.1435 
7     C4       2.3460  -36.0770   23.6860 C.ar    1  LIG  -0.0398   0.1170 
8     N2       0.9890  -36.0280   24.1030 N.am    1  LIG  -0.4596  -0.5470 
9     H3       0.7643  -35.9928   25.0860 H       1  LIG   0.3311   0.3700 
10    C5      -0.1450  -36.0180   23.4080 C.2     1  LIG   0.7361   0.5438 
11    C6      -0.1190  -36.0770   21.8860 C.ar    1  LIG  -0.2550   0.0862 
12    C7      -1.1230  -35.3990   21.1890 C.ar    1  LIG  -0.0321  -0.1500 
13    H4      -1.7552  -34.6955   21.7041 H       1  LIG   0.1623   0.1500 
14    C8      -1.2960  -35.6300   19.8690 C.ar    1  LIG  -0.2723  -0.1500 
15    H5      -2.0662  -35.1073   19.3273 H       1  LIG   0.1522   0.1500 
16    C9      -0.4670  -36.5450   19.2400 C.ar    1  LIG   0.4373   0.1600 
17    H6      -0.5947  -36.7554   18.1915 H       1  LIG   0.0280   0.1500 
18    N3       0.5220  -37.2120   19.8740 N.ar    1  LIG  -0.6893  -0.6200 
19    C10      0.7040  -36.9790   21.1800 C.ar    1  LIG   0.6480   0.4100 
20    N4       1.7670  -37.6730   21.8260 N.pl3   1  LIG  -0.6924  -0.3690 
21    C11      2.7540  -36.8570   22.5840 C.ar    1  LIG   0.5805   0.4100 
22    C12      2.9040  -34.5090   25.6010 C.3     1  LIG  -0.0620   0.1435 
23    H7       2.2235  -33.7630   25.2820 H       1  LIG   0.0570   0.0000 
24    H8       2.4436  -35.1154   26.3371 H       1  LIG   0.0495   0.0000 
25    H9       3.7654  -34.0491   26.0108 H       1  LIG   0.0519   0.0000 
26    O1      -1.2400  -35.9060   23.9770 O.2     1  LIG  -0.6361  -0.5700 
27    C13      2.3440  -38.7570   21.0360 C.3     1  LIG   0.1354   0.0690 
28    H10      3.1238  -38.3754   20.4296 H       1  LIG   0.0981   0.1000 
29    C14      2.9380  -39.8900   21.8010 C.3     1  LIG  -0.1181  -0.2000 
30    H11      3.8890  -40.1268   21.3997 H       1  LIG   0.0732   0.1000 
31    H12      3.0430  -39.6129   22.8177 H       1  LIG   0.0789   0.1000 
32    C15      1.6390  -40.0610   21.0880 C.3     1  LIG  -0.1196  -0.2000 
33    H13      0.6832  -39.9283   21.5242 H       1  LIG   0.0807   0.1000 
34    H14      1.5292  -40.4423   20.1061 H       1  LIG   0.0733   0.1000 
@<TRIPOS>BOND
1     2     1     ar
2     3     2     1
3     4     2     ar
4     5     4     1
5     6     4     ar
6     7     6     ar
7     8     7     1
8     9     8     1
9     10    8     1
10    11    10    1
11    12    11    ar
12    13    12    1
13    14    12    ar
14    15    14    1
15    16    14    ar
16    17    16    1
17    18    16    ar
18    19    11    ar
19    19    18    ar
20    20    19    1
21    21    1     ar
22    21    7     ar
23    21    20    1
24    22    6     1
25    23    22    1
26    24    22    1
27    25    22    1
28    26    10    2
29    27    20    1
30    28    27    1
31    29    27    1
32    30    29    1
33    31    29    1
34    32    27    1
35    32    29    1
36    33    32    1
37    34    32    1
@<TRIPOS>SUBSTRUCTURE
1   LIG    1    
 
########## Name        : 1VRT.lig
########## Description : AM1BCC_CHARGES =  -0.0002 ORIGINAL_CHARGES =  -0.0000

@<TRIPOS>MOLECULE
1VRT.lig
34    37    1     0     0    
SMALL
USER_CHARGES
@<TRIPOS>ATOM
1     N1       4.0540  -36.9310   22.2210 N.ar    1  LIG  -0.6650  -0.6200 
2     C1       4.9660  -36.2380   22.9390 C.ar    1  LIG   0.3947   0.1600 
3     H1       6.0082  -36.2811   22.6707 H       1  LIG   0.0281   0.1500 
4     C2       4.6240  -35.4500   24.0360 C.ar    1  LIG  -0.2334  -0.1500 
5     H2       5.3884  -34.9151   24.5740 H       1  LIG   0.1480   0.1500 
6     C3       3.3050  -35.3690   24.4150 C.ar    1  LIG  -0.0698  -0.1435 
7     C4       2.3460  -36.0770   23.6860 C.ar    1  LIG  -0.0398   0.1170 
8     N2       0.9890  -36.0280   24.1030 N.am    1  LIG  -0.4596  -0.5470 
9     H3       0.7643  -35.9928   25.0860 H       1  LIG   0.3311   0.3700 
10    C5      -0.1450  -36.0180   23.4080 C.2     1  LIG   0.7361   0.5438 
11    C6      -0.1190  -36.0770   21.8860 C.ar    1  LIG  -0.2550   0.0862 
12    C7      -1.1230  -35.3990   21.1890 C.ar    1  LIG  -0.0321  -0.1500 
13    H4      -1.7552  -34.6955   21.7041 H       1  LIG   0.1623   0.1500 
14    C8      -1.2960  -35.6300   19.8690 C.ar    1  LIG  -0.2723  -0.1500 
15    H5      -2.0662  -35.1073   19.3273 H       1  LIG   0.1522   0.1500 
16    C9      -0.4670  -36.5450   19.2400 C.ar    1  LIG   0.4373   0.1600 
17    H6      -0.5947  -36.7554   18.1915 H       1  LIG   0.0280   0.1500 
18    N3       0.5220  -37.2120   19.8740 N.ar    1  LIG  -0.6893  -0.6200 
19    C10      0.7040  -36.9790   21.1800 C.ar    1  LIG   0.6480   0.4100 
20    N4       1.7670  -37.6730   21.8260 N.pl3   1  LIG  -0.6924  -0.3690 
21    C11      2.7540  -36.8570   22.5840 C.ar    1  LIG   0.5805   0.4100 
22    C12      2.9040  -34.5090   25.6010 C.3     1  LIG  -0.0620   0.1435 
23    H7       2.2235  -33.7630   25.2820 H       1  LIG   0.0570   0.0000 
24    H8       2.4436  -35.1154   26.3371 H       1  LIG   0.0495   0.0000 
25    H9       3.7654  -34.0491   26.0108 H       1  LIG   0.0519   0.0000 
26    O1      -1.2400  -35.9060   23.9770 O.2     1  LIG  -0.6361  -0.5700 
27    C13      2.3440  -38.7570   21.0360 C.3     1  LIG   0.1354   0.0690 
28    H10      3.1238  -38.3754   20.4296 H       1  LIG   0.0981   0.1000 
29    C14      2.9380  -39.8900   21.8010 C.3     1  LIG  -0.1181  -0.2000 
30    H11      3.8890  -40.1268   21.3997 H       1  LIG   0.0732   0.1000 
31    H12      3.0430  -39.6129   22.8177 H       1  LIG   0.0789   0.1000 
32    C15      1.6390  -40.0610   21.0880 C.3     1  LIG  -0.1196  -0.2000 
33    H13      0.6832  -39.9283   21.5242 H       1  LIG   0.0807   0.1000 
34    H14      1.5292  -40.4423   20.1061 H       1  LIG   0.0733   0.1000 
@<TRIPOS>BOND
1     2     1     ar
2     3     2     1
3     4     2     ar
4     5     4     1
5     6     4     ar
6     7     6     ar
7     8     7     1
8     9     8     1
9     10    8     1
10    11    10    1
11    12    11    ar
12    13    12    1
13    14    12    ar
14    15    14    1
15    16    14    ar
16    17    16    1
17    18    16    ar
18    19    11    ar
19    19    18    ar
20    20    19    1
21    21    1     ar
22    21    7     ar
23    21    20    1
24    22    6     1
25    23    22    1
26    24    22    1
27    25    22    1
28    26    10    2
29    27    20    1
30    28    27    1
31    29    27    1
32    30    29    1
33    31    29    1
34    32    27    1
35    32    29    1
36    33    32    1
37    34    32    1
@<TRIPOS>SUBSTRUCTURE
1   LIG    1    
 
########## Name        : 1VRT.lig
########## Description : AM1BCC_CHARGES =  -0.0002 ORIGINAL_CHARGES =  -0.0000

@<TRIPOS>MOLECULE
1VRT.lig
34    37    1     0     0    
SMALL
USER_CHARGES
@<TRIPOS>ATOM
1     N1       4.0540  -36.9310   22.2210 N.ar    1  LIG  -0.6650  -0.6200 
2     C1       4.9660  -36.2380   22.9390 C.ar    1  LIG   0.3947   0.1600 
3     H1       6.0082  -36.2811   22.6707 H       1  LIG   0.0281   0.1500 
4     C2       4.6240  -35.4500   24.0360 C.ar    1  LIG  -0.2334  -0.1500 
5     H2       5.3884  -34.9151   24.5740 H       1  LIG   0.1480   0.1500 
6     C3       3.3050  -35.3690   24.4150 C.ar    1  LIG  -0.0698  -0.1435 
7     C4       2.3460  -36.0770   23.6860 C.ar    1  LIG  -0.0398   0.1170 
8     N2       0.9890  -36.0280   24.1030 N.am    1  LIG  -0.4596  -0.5470 
9     H3       0.7643  -35.9928   25.0860 H       1  LIG   0.3311   0.3700 
10    C5      -0.1450  -36.0180   23.4080 C.2     1  LIG   0.7361   0.5438 
11    C6      -0.1190  -36.0770   21.8860 C.ar    1  LIG  -0.2550   0.0862 
12    C7      -1.1230  -35.3990   21.1890 C.ar    1  LIG  -0.0321  -0.1500 
13    H4      -1.7552  -34.6955   21.7041 H       1  LIG   0.1623   0.1500 
14    C8      -1.2960  -35.6300   19.8690 C.ar    1  LIG  -0.2723  -0.1500 
15    H5      -2.0662  -35.1073   19.3273 H       1  LIG   0.1522   0.1500 
16    C9      -0.4670  -36.5450   19.2400 C.ar    1  LIG   0.4373   0.1600 
17    H6      -0.5947  -36.7554   18.1915 H       1  LIG   0.0280   0.1500 
18    N3       0.5220  -37.2120   19.8740 N.ar    1  LIG  -0.6893  -0.6200 
19    C10      0.7040  -36.9790   21.1800 C.ar    1  LIG   0.6480   0.4100 
20    N4       1.7670  -37.6730   21.8260 N.pl3   1  LIG  -0.6924  -0.3690 
21    C11      2.7540  -36.8570   22.5840 C.ar    1  LIG   0.5805   0.4100 
22    C12      2.9040  -34.5090   25.6010 C.3     1  LIG  -0.0620   0.1435 
23    H7       2.2235  -33.7630   25.2820 H       1  LIG   0.0570   0.0000 
24    H8       2.4436  -35.1154   26.3371 H       1  LIG   0.0495   0.0000 
25    H9       3.7654  -34.0491   26.0108 H       1  LIG   0.0519   0.0000 
26    O1      -1.2400  -35.9060   23.9770 O.2     1  LIG  -0.6361  -0.5700 
27    C13      2.3440  -38.7570   21.0360 C.3     1  LIG   0.1354   0.0690 
28    H10      3.1238  -38.3754   20.4296 H       1  LIG   0.0981   0.1000 
29    C14      2.9380  -39.8900   21.8010 C.3     1  LIG  -0.1181  -0.2000 
30    H11      3.8890  -40.1268   21.3997 H       1  LIG   0.0732   0.1000 
31    H12      3.0430  -39.6129   22.8177 H       1  LIG   0.0789   0.1000 
32    C15      1.6390  -40.0610   21.0880 C.3     1  LIG  -0.1196  -0.2000 
33    H13      0.6832  -39.9283   21.5242 H       1  LIG   0.0807   0.1000 
34    H14      1.5292  -40.4423   20.1061 H       1  LIG   0.0733   0.1000 
@<TRIPOS>BOND
1     2     1     ar
2     3     2     1
3     4     2     ar
4     5     4     1
5     6     4     ar
6     7     6     ar
7     8     7     1
8     9     8     1
9     10    8     1
10    11    10    1
11    12    11    ar
12    13    12    1
13    14    12    ar
14    15    14    1
15    16    14    ar
16    17    16    1
17    18    16    ar
18    19    11    ar
19    19    18    ar
20    20    19    1
21    21    1     ar
22    21    7     ar
23    21    20    1
24    22    6     1
25    23    22    1
26    24    22    1
27    25    22    1
28    26    10    2
29    27    20    1
30    28    27    1
31    29    27    1
32    30    29    1
33    31    29    1
34    32    27    1
35    32    29    1
36    33    32    1
37    34    32    1
@<TRIPOS>SUBSTRUCTURE
1   LIG    1    
 
########## Name        : 1VRT.lig
########## Description : AM1BCC_CHARGES =  -0.0002 ORIGINAL_CHARGES =  -0.0000

@<TRIPOS>MOLECULE
1VRT.lig
34    37    1     0     0    
SMALL
USER_CHARGES
@<TRIPOS>ATOM
1     N1       4.0540  -36.9310   22.2210 N.ar    1  LIG  -0.6650  -0.6200 
2     C1       4.9660  -36.2380   22.9390 C.ar    1  LIG   0.3947   0.1600 
3     H1       6.0082  -36.2811   22.6707 H       1  LIG   0.0281   0.1500 
4     C2       4.6240  -35.4500   24.0360 C.ar    1  LIG  -0.2334  -0.1500 
5     H2       5.3884  -34.9151   24.5740 H       1  LIG   0.1480   0.1500 
6     C3       3.3050  -35.3690   24.4150 C.ar    1  LIG  -0.0698  -0.1435 
7     C4       2.3460  -36.0770   23.6860 C.ar    1  LIG  -0.0398   0.1170 
8     N2       0.9890  -36.0280   24.1030 N.am    1  LIG  -0.4596  -0.5470 
9     H3       0.7643  -35.9928   25.0860 H       1  LIG   0.3311   0.3700 
10    C5      -0.1450  -36.0180   23.4080 C.2     1  LIG   0.7361   0.5438 
11    C6      -0.1190  -36.0770   21.8860 C.ar    1  LIG  -0.2550   0.0862 
12    C7      -1.1230  -35.3990   21.1890 C.ar    1  LIG  -0.0321  -0.1500 
13    H4      -1.7552  -34.6955   21.7041 H       1  LIG   0.1623   0.1500 
14    C8      -1.2960  -35.6300   19.8690 C.ar    1  LIG  -0.2723  -0.1500 
15    H5      -2.0662  -35.1073   19.3273 H       1  LIG   0.1522   0.1500 
16    C9      -0.4670  -36.5450   19.2400 C.ar    1  LIG   0.4373   0.1600 
17    H6      -0.5947  -36.7554   18.1915 H       1  LIG   0.0280   0.1500 
18    N3       0.5220  -37.2120   19.8740 N.ar    1  LIG  -0.6893  -0.6200 
19    C10      0.7040  -36.9790   21.1800 C.ar    1  LIG   0.6480   0.4100 
20    N4       1.7670  -37.6730   21.8260 N.pl3   1  LIG  -0.6924  -0.3690 
21    C11      2.7540  -36.8570   22.5840 C.ar    1  LIG   0.5805   0.4100 
22    C12      2.9040  -34.5090   25.6010 C.3     1  LIG  -0.0620   0.1435 
23    H7       2.2235  -33.7630   25.2820 H       1  LIG   0.0570   0.0000 
24    H8       2.4436  -35.1154   26.3371 H       1  LIG   0.0495   0.0000 
25    H9       3.7654  -34.0491   26.0108 H       1  LIG   0.0519   0.0000 
26    O1      -1.2400  -35.9060   23.9770 O.2     1  LIG  -0.6361  -0.5700 
27    C13      2.3440  -38.7570   21.0360 C.3     1  LIG   0.1354   0.0690 
28    H10      3.1238  -38.3754   20.4296 H       1  LIG   0.0981   0.1000 
29    C14      2.9380  -39.8900   21.8010 C.3     1  LIG  -0.1181  -0.2000 
30    H11      3.8890  -40.1268   21.3997 H       1  LIG   0.0732   0.1000 
31    H12      3.0430  -39.6129   22.8177 H       1  LIG   0.0789   0.1000 
32    C15      1.6390  -40.0610   21.0880 C.3     1  LIG  -0.1196  -0.2000 
33    H13      0.6832  -39.9283   21.5242 H       1  LIG   0.0807   0.1000 
34    H14      1.5292  -40.4423   20.1061 H       1  LIG   0.0733   0.1000 
@<TRIPOS>BOND
1     2     1     ar
2     3     2     1
3     4     2     ar
4     5     4     1
5     6     4     ar
6     7     6     ar
7     8     7     1
8     9     8     1
9     10    8     1
10    11    10    1
11    12    11    ar
12    13    12    1
13    14    12    ar
14    15    14    1
15    16    14    ar
16    17    16    1
17    18    16    ar
18    19    11    ar
19    19    18    ar
20    20    19    1
21    21    1     ar
22    21    7     ar
23    21    20    1
24    22    6     1
25    23    22    1
26    24    22    1
27    25    22    1
28    26    10    2
29    27    20    1
30    28    27    1
31    29    27    1
32    30    29    1
33    31    29    1
34    32    27    1
35    32    29    1
36    33    32    1
37    34    32    1
@<TRIPOS>SUBSTRUCTURE
1   LIG    1    
 
########## Name        : 1VRT.lig
########## Description : AM1BCC_CHARGES =  -0.0002 ORIGINAL_CHARGES =  -0.0000

@<TRIPOS>MOLECULE
1VRT.lig
34    37    1     0     0    
SMALL
USER_CHARGES
@<TRIPOS>ATOM
1     N1       4.0540  -36.9310   22.2210 N.ar    1  LIG  -0.6650  -0.6200 
2     C1       4.9660  -36.2380   22.9390 C.ar    1  LIG   0.3947   0.1600 
3     H1       6.0082  -36.2811   22.6707 H       1  LIG   0.0281   0.1500 
4     C2       4.6240  -35.4500   24.0360 C.ar    1  LIG  -0.2334  -0.1500 
5     H2       5.3884  -34.9151   24.5740 H       1  LIG   0.1480   0.1500 
6     C3       3.3050  -35.3690   24.4150 C.ar    1  LIG  -0.0698  -0.1435 
7     C4       2.3460  -36.0770   23.6860 C.ar    1  LIG  -0.0398   0.1170 
8     N2       0.9890  -36.0280   24.1030 N.am    1  LIG  -0.4596  -0.5470 
9     H3       0.7643  -35.9928   25.0860 H       1  LIG   0.3311   0.3700 
10    C5      -0.1450  -36.0180   23.4080 C.2     1  LIG   0.7361   0.5438 
11    C6      -0.1190  -36.0770   21.8860 C.ar    1  LIG  -0.2550   0.0862 
12    C7      -1.1230  -35.3990   21.1890 C.ar    1  LIG  -0.0321  -0.1500 
13    H4      -1.7552  -34.6955   21.7041 H       1  LIG   0.1623   0.1500 
14    C8      -1.2960  -35.6300   19.8690 C.ar    1  LIG  -0.2723  -0.1500 
15    H5      -2.0662  -35.1073   19.3273 H       1  LIG   0.1522   0.1500 
16    C9      -0.4670  -36.5450   19.2400 C.ar    1  LIG   0.4373   0.1600 
17    H6      -0.5947  -36.7554   18.1915 H       1  LIG   0.0280   0.1500 
18    N3       0.5220  -37.2120   19.8740 N.ar    1  LIG  -0.6893  -0.6200 
19    C10      0.7040  -36.9790   21.1800 C.ar    1  LIG   0.6480   0.4100 
20    N4       1.7670  -37.6730   21.8260 N.pl3   1  LIG  -0.6924  -0.3690 
21    C11      2.7540  -36.8570   22.5840 C.ar    1  LIG   0.5805   0.4100 
22    C12      2.9040  -34.5090   25.6010 C.3     1  LIG  -0.0620   0.1435 
23    H7       2.2235  -33.7630   25.2820 H       1  LIG   0.0570   0.0000 
24    H8       2.4436  -35.1154   26.3371 H       1  LIG   0.0495   0.0000 
25    H9       3.7654  -34.0491   26.0108 H       1  LIG   0.0519   0.0000 
26    O1      -1.2400  -35.9060   23.9770 O.2     1  LIG  -0.6361  -0.5700 
27    C13      2.3440  -38.7570   21.0360 C.3     1  LIG   0.1354   0.0690 
28    H10      3.1238  -38.3754   20.4296 H       1  LIG   0.0981   0.1000 
29    C14      2.9380  -39.8900   21.8010 C.3     1  LIG  -0.1181  -0.2000 
30    H11      3.8890  -40.1268   21.3997 H       1  LIG   0.0732   0.1000 
31    H12      3.0430  -39.6129   22.8177 H       1  LIG   0.0789   0.1000 
32    C15      1.6390  -40.0610   21.0880 C.3     1  LIG  -0.1196  -0.2000 
33    H13      0.6832  -39.9283   21.5242 H       1  LIG   0.0807   0.1000 
34    H14      1.5292  -40.4423   20.1061 H       1  LIG   0.0733   0.1000 
@<TRIPOS>BOND
1     2     1     ar
2     3     2     1
3     4     2     ar
4     5     4     1
5     6     4     ar
6     7     6     ar
7     8     7     1
8     9     8     1
9     10    8     1
10    11    10    1
11    12    11    ar
12    13    12    1
13    14    12    ar
14    15    14    1
15    16    14    ar
16    17    16    1
17    18    16    ar
18    19    11    ar
19    19    18    ar
20    20    19    1
21    21    1     ar
22    21    7     ar
23    21    20    1
24    22    6     1
25    23    22    1
26    24    22    1
27    25    22    1
28    26    10    2
29    27    20    1
30    28    27    1
31    29    27    1
32    30    29    1
33    31    29    1
34    32    27    1
35    32    29    1
36    33    32    1
37    34    32    1
@<TRIPOS>SUBSTRUCTURE
1   LIG    1    
 
########## Name        : 1VRT.lig
########## Description : AM1BCC_CHARGES =  -0.0002 ORIGINAL_CHARGES =  -0.0000

@<TRIPOS>MOLECULE
1VRT.lig
34    37    1     0     0    
SMALL
USER_CHARGES
@<TRIPOS>ATOM
1     N1       4.0540  -36.9310   22.2210 N.ar    1  LIG  -0.6650  -0.6200 
2     C1       4.9660  -36.2380   22.9390 C.ar    1  LIG   0.3947   0.1600 
3     H1       6.0082  -36.2811   22.6707 H       1  LIG   0.0281   0.1500 
4     C2       4.6240  -35.4500   24.0360 C.ar    1  LIG  -0.2334  -0.1500 
5     H2       5.3884  -34.9151   24.5740 H       1  LIG   0.1480   0.1500 
6     C3       3.3050  -35.3690   24.4150 C.ar    1  LIG  -0.0698  -0.1435 
7     C4       2.3460  -36.0770   23.6860 C.ar    1  LIG  -0.0398   0.1170 
8     N2       0.9890  -36.0280   24.1030 N.am    1  LIG  -0.4596  -0.5470 
9     H3       0.7643  -35.9928   25.0860 H       1  LIG   0.3311   0.3700 
10    C5      -0.1450  -36.0180   23.4080 C.2     1  LIG   0.7361   0.5438 
11    C6      -0.1190  -36.0770   21.8860 C.ar    1  LIG  -0.2550   0.0862 
12    C7      -1.1230  -35.3990   21.1890 C.ar    1  LIG  -0.0321  -0.1500 
13    H4      -1.7552  -34.6955   21.7041 H       1  LIG   0.1623   0.1500 
14    C8      -1.2960  -35.6300   19.8690 C.ar    1  LIG  -0.2723  -0.1500 
15    H5      -2.0662  -35.1073   19.3273 H       1  LIG   0.1522   0.1500 
16    C9      -0.4670  -36.5450   19.2400 C.ar    1  LIG   0.4373   0.1600 
17    H6      -0.5947  -36.7554   18.1915 H       1  LIG   0.0280   0.1500 
18    N3       0.5220  -37.2120   19.8740 N.ar    1  LIG  -0.6893  -0.6200 
19    C10      0.7040  -36.9790   21.1800 C.ar    1  LIG   0.6480   0.4100 
20    N4       1.7670  -37.6730   21.8260 N.pl3   1  LIG  -0.6924  -0.3690 
21    C11      2.7540  -36.8570   22.5840 C.ar    1  LIG   0.5805   0.4100 
22    C12      2.9040  -34.5090   25.6010 C.3     1  LIG  -0.0620   0.1435 
23    H7       2.2235  -33.7630   25.2820 H       1  LIG   0.0570   0.0000 
24    H8       2.4436  -35.1154   26.3371 H       1  LIG   0.0495   0.0000 
25    H9       3.7654  -34.0491   26.0108 H       1  LIG   0.0519   0.0000 
26    O1      -1.2400  -35.9060   23.9770 O.2     1  LIG  -0.6361  -0.5700 
27    C13      2.3440  -38.7570   21.0360 C.3     1  LIG   0.1354   0.0690 
28    H10      3.1238  -38.3754   20.4296 H       1  LIG   0.0981   0.1000 
29    C14      2.9380  -39.8900   21.8010 C.3     1  LIG  -0.1181  -0.2000 
30    H11      3.8890  -40.1268   21.3997 H       1  LIG   0.0732   0.1000 
31    H12      3.0430  -39.6129   22.8177 H       1  LIG   0.0789   0.1000 
32    C15      1.6390  -40.0610   21.0880 C.3     1  LIG  -0.1196  -0.2000 
33    H13      0.6832  -39.9283   21.5242 H       1  LIG   0.0807   0.1000 
34    H14      1.5292  -40.4423   20.1061 H       1  LIG   0.0733   0.1000 
@<TRIPOS>BOND
1     2     1     ar
2     3     2     1
3     4     2     ar
4     5     4     1
5     6     4     ar
6     7     6     ar
7     8     7     1
8     9     8     1
9     10    8     1
10    11    10    1
11    12    11    ar
12    13    12    1
13    14    12    ar
14    15    14    1
15    16    14    ar
16    17    16    1
17    18    16    ar
18    19    11    ar
19    19    18    ar
20    20    19    1
21    21    1     ar
22    21    7     ar
23    21    20    1
24    22    6     1
25    23    22    1
26    24    22    1
27    25    22    1
28    26    10    2
29    27    20    1
30    28    27    1
31    29    27    1
32    30    29    1
33    31    29    1
34    32    27    1
35    32    29    1
36    33    32    1
37    34    32    1
@<TRIPOS>SUBSTRUCTURE
1   LIG    1    
 
########## Name        : 1VRT.lig
########## Description : AM1BCC_CHARGES =  -0.0002 ORIGINAL_CHARGES =  -0.0000

@<TRIPOS>MOLECULE
1VRT.lig
34    37    1     0     0    
SMALL
USER_CHARGES
@<TRIPOS>ATOM
1     N1       4.0540  -36.9310   22.2210 N.ar    1  LIG  -0.6650  -0.6200 
2     C1       4.9660  -36.2380   22.9390 C.ar    1  LIG   0.3947   0.1600 
3     H1       6.0082  -36.2811   22.6707 H       1  LIG   0.0281   0.1500 
4     C2       4.6240  -35.4500   24.0360 C.ar    1  LIG  -0.2334  -0.1500 
5     H2       5.3884  -34.9151   24.5740 H       1  LIG   0.1480   0.1500 
6     C3       3.3050  -35.3690   24.4150 C.ar    1  LIG  -0.0698  -0.1435 
7     C4       2.3460  -36.0770   23.6860 C.ar    1  LIG  -0.0398   0.1170 
8     N2       0.9890  -36.0280   24.1030 N.am    1  LIG  -0.4596  -0.5470 
9     H3       0.7643  -35.9928   25.0860 H       1  LIG   0.3311   0.3700 
10    C5      -0.1450  -36.0180   23.4080 C.2     1  LIG   0.7361   0.5438 
11    C6      -0.1190  -36.0770   21.8860 C.ar    1  LIG  -0.2550   0.0862 
12    C7      -1.1230  -35.3990   21.1890 C.ar    1  LIG  -0.0321  -0.1500 
13    H4      -1.7552  -34.6955   21.7041 H       1  LIG   0.1623   0.1500 
14    C8      -1.2960  -35.6300   19.8690 C.ar    1  LIG  -0.2723  -0.1500 
15    H5      -2.0662  -35.1073   19.3273 H       1  LIG   0.1522   0.1500 
16    C9      -0.4670  -36.5450   19.2400 C.ar    1  LIG   0.4373   0.1600 
17    H6      -0.5947  -36.7554   18.1915 H       1  LIG   0.0280   0.1500 
18    N3       0.5220  -37.2120   19.8740 N.ar    1  LIG  -0.6893  -0.6200 
19    C10      0.7040  -36.9790   21.1800 C.ar    1  LIG   0.6480   0.4100 
20    N4       1.7670  -37.6730   21.8260 N.pl3   1  LIG  -0.6924  -0.3690 
21    C11      2.7540  -36.8570   22.5840 C.ar    1  LIG   0.5805   0.4100 
22    C12      2.9040  -34.5090   25.6010 C.3     1  LIG  -0.0620   0.1435 
23    H7       2.2235  -33.7630   25.2820 H       1  LIG   0.0570   0.0000 
24    H8       2.4436  -35.1154   26.3371 H       1  LIG   0.0495   0.0000 
25    H9       3.7654  -34.0491   26.0108 H       1  LIG   0.0519   0.0000 
26    O1      -1.2400  -35.9060   23.9770 O.2     1  LIG  -0.6361  -0.5700 
27    C13      2.3440  -38.7570   21.0360 C.3     1  LIG   0.1354   0.0690 
28    H10      3.1238  -38.3754   20.4296 H       1  LIG   0.0981   0.1000 
29    C14      2.9380  -39.8900   21.8010 C.3     1  LIG  -0.1181  -0.2000 
30    H11      3.8890  -40.1268   21.3997 H       1  LIG   0.0732   0.1000 
31    H12      3.0430  -39.6129   22.8177 H       1  LIG   0.0789   0.1000 
32    C15      1.6390  -40.0610   21.0880 C.3     1  LIG  -0.1196  -0.2000 
33    H13      0.6832  -39.9283   21.5242 H       1  LIG   0.0807   0.1000 
34    H14      1.5292  -40.4423   20.1061 H       1  LIG   0.0733   0.1000 
@<TRIPOS>BOND
1     2     1     ar
2     3     2     1
3     4     2     ar
4     5     4     1
5     6     4     ar
6     7     6     ar
7     8     7     1
8     9     8     1
9     10    8     1
10    11    10    1
11    12    11    ar
12    13    12    1
13    14    12    ar
14    15    14    1
15    16    14    ar
16    17    16    1
17    18    16    ar
18    19    11    ar
19    19    18    ar
20    20    19    1
21    21    1     ar
22    21    7     ar
23    21    20    1
24    22    6     1
25    23    22    1
26    24    22    1
27    25    22    1
28    26    10    2
29    27    20    1
30    28    27    1
31    29    27    1
32    30    29    1
33    31    29    1
34    32    27    1
35    32    29    1
36    33    32    1
37    34    32    1
@<TRIPOS>SUBSTRUCTURE
1   LIG    1    
 
########## Name        : 1VRT.lig
########## Description : AM1BCC_CHARGES =  -0.0002 ORIGINAL_CHARGES =  -0.0000

@<TRIPOS>MOLECULE
1VRT.lig
34    37    1     0     0    
SMALL
USER_CHARGES
@<TRIPOS>ATOM
1     N1       4.0540  -36.9310   22.2210 N.ar    1  LIG  -0.6650  -0.6200 
2     C1       4.9660  -36.2380   22.9390 C.ar    1  LIG   0.3947   0.1600 
3     H1       6.0082  -36.2811   22.6707 H       1  LIG   0.0281   0.1500 
4     C2       4.6240  -35.4500   24.0360 C.ar    1  LIG  -0.2334  -0.1500 
5     H2       5.3884  -34.9151   24.5740 H       1  LIG   0.1480   0.1500 
6     C3       3.3050  -35.3690   24.4150 C.ar    1  LIG  -0.0698  -0.1435 
7     C4       2.3460  -36.0770   23.6860 C.ar    1  LIG  -0.0398   0.1170 
8     N2       0.9890  -36.0280   24.1030 N.am    1  LIG  -0.4596  -0.5470 
9     H3       0.7643  -35.9928   25.0860 H       1  LIG   0.3311   0.3700 
10    C5      -0.1450  -36.0180   23.4080 C.2     1  LIG   0.7361   0.5438 
11    C6      -0.1190  -36.0770   21.8860 C.ar    1  LIG  -0.2550   0.0862 
12    C7      -1.1230  -35.3990   21.1890 C.ar    1  LIG  -0.0321  -0.1500 
13    H4      -1.7552  -34.6955   21.7041 H       1  LIG   0.1623   0.1500 
14    C8      -1.2960  -35.6300   19.8690 C.ar    1  LIG  -0.2723  -0.1500 
15    H5      -2.0662  -35.1073   19.3273 H       1  LIG   0.1522   0.1500 
16    C9      -0.4670  -36.5450   19.2400 C.ar    1  LIG   0.4373   0.1600 
17    H6      -0.5947  -36.7554   18.1915 H       1  LIG   0.0280   0.1500 
18    N3       0.5220  -37.2120   19.8740 N.ar    1  LIG  -0.6893  -0.6200 
19    C10      0.7040  -36.9790   21.1800 C.ar    1  LIG   0.6480   0.4100 
20    N4       1.7670  -37.6730   21.8260 N.pl3   1  LIG  -0.6924  -0.3690 
21    C11      2.7540  -36.8570   22.5840 C.ar    1  LIG   0.5805   0.4100 
22    C12      2.9040  -34.5090   25.6010 C.3     1  LIG  -0.0620   0.1435 
23    H7       2.2235  -33.7630   25.2820 H       1  LIG   0.0570   0.0000 
24    H8       2.4436  -35.1154   26.3371 H       1  LIG   0.0495   0.0000 
25    H9       3.7654  -34.0491   26.0108 H       1  LIG   0.0519   0.0000 
26    O1      -1.2400  -35.9060   23.9770 O.2     1  LIG  -0.6361  -0.5700 
27    C13      2.3440  -38.7570   21.0360 C.3     1  LIG   0.1354   0.0690 
28    H10      3.1238  -38.3754   20.4296 H       1  LIG   0.0981   0.1000 
29    C14      2.9380  -39.8900   21.8010 C.3     1  LIG  -0.1181  -0.2000 
30    H11      3.8890  -40.1268   21.3997 H       1  LIG   0.0732   0.1000 
31    H12      3.0430  -39.6129   22.8177 H       1  LIG   0.0789   0.1000 
32    C15      1.6390  -40.0610   21.0880 C.3     1  LIG  -0.1196  -0.2000 
33    H13      0.6832  -39.9283   21.5242 H       1  LIG   0.0807   0.1000 
34    H14      1.5292  -40.4423   20.1061 H       1  LIG   0.0733   0.1000 
@<TRIPOS>BOND
1     2     1     ar
2     3     2     1
3     4     2     ar
4     5     4     1
5     6     4     ar
6     7     6     ar
7     8     7     1
8     9     8     1
9     10    8     1
10    11    10    1
11    12    11    ar
12    13    12    1
13    14    12    ar
14    15    14    1
15    16    14    ar
16    17    16    1
17    18    16    ar
18    19    11    ar
19    19    18    ar
20    20    19    1
21    21    1     ar
22    21    7     ar
23    21    20    1
24    22    6     1
25    23    22    1
26    24    22    1
27    25    22    1
28    26    10    2
29    27    20    1
30    28    27    1
31    29    27    1
32    30    29    1
33    31    29    1
34    32    27    1
35    32    29    1
36    33    32    1
37    34    32    1
@<TRIPOS>SUBSTRUCTURE
1   LIG    1    
 
########## Name        : 1VRT.lig
########## Description : AM1BCC_CHARGES =  -0.0002 ORIGINAL_CHARGES =  -0.0000

@<TRIPOS>MOLECULE
1VRT.lig
34    37    1     0     0    
SMALL
USER_CHARGES
@<TRIPOS>ATOM
1     N1       4.0540  -36.9310   22.2210 N.ar    1  LIG  -0.6650  -0.6200 
2     C1       4.9660  -36.2380   22.9390 C.ar    1  LIG   0.3947   0.1600 
3     H1       6.0082  -36.2811   22.6707 H       1  LIG   0.0281   0.1500 
4     C2       4.6240  -35.4500   24.0360 C.ar    1  LIG  -0.2334  -0.1500 
5     H2       5.3884  -34.9151   24.5740 H       1  LIG   0.1480   0.1500 
6     C3       3.3050  -35.3690   24.4150 C.ar    1  LIG  -0.0698  -0.1435 
7     C4       2.3460  -36.0770   23.6860 C.ar    1  LIG  -0.0398   0.1170 
8     N2       0.9890  -36.0280   24.1030 N.am    1  LIG  -0.4596  -0.5470 
9     H3       0.7643  -35.9928   25.0860 H       1  LIG   0.3311   0.3700 
10    C5      -0.1450  -36.0180   23.4080 C.2     1  LIG   0.7361   0.5438 
11    C6      -0.1190  -36.0770   21.8860 C.ar    1  LIG  -0.2550   0.0862 
12    C7      -1.1230  -35.3990   21.1890 C.ar    1  LIG  -0.0321  -0.1500 
13    H4      -1.7552  -34.6955   21.7041 H       1  LIG   0.1623   0.1500 
14    C8      -1.2960  -35.6300   19.8690 C.ar    1  LIG  -0.2723  -0.1500 
15    H5      -2.0662  -35.1073   19.3273 H       1  LIG   0.1522   0.1500 
16    C9      -0.4670  -36.5450   19.2400 C.ar    1  LIG   0.4373   0.1600 
17    H6      -0.5947  -36.7554   18.1915 H       1  LIG   0.0280   0.1500 
18    N3       0.5220  -37.2120   19.8740 N.ar    1  LIG  -0.6893  -0.6200 
19    C10      0.7040  -36.9790   21.1800 C.ar    1  LIG   0.6480   0.4100 
20    N4       1.7670  -37.6730   21.8260 N.pl3   1  LIG  -0.6924  -0.3690 
21    C11      2.7540  -36.8570   22.5840 C.ar    1  LIG   0.5805   0.4100 
22    C12      2.9040  -34.5090   25.6010 C.3     1  LIG  -0.0620   0.1435 
23    H7       2.2235  -33.7630   25.2820 H       1  LIG   0.0570   0.0000 
24    H8       2.4436  -35.1154   26.3371 H       1  LIG   0.0495   0.0000 
25    H9       3.7654  -34.0491   26.0108 H       1  LIG   0.0519   0.0000 
26    O1      -1.2400  -35.9060   23.9770 O.2     1  LIG  -0.6361  -0.5700 
27    C13      2.3440  -38.7570   21.0360 C.3     1  LIG   0.1354   0.0690 
28    H10      3.1238  -38.3754   20.4296 H       1  LIG   0.0981   0.1000 
29    C14      2.9380  -39.8900   21.8010 C.3     1  LIG  -0.1181  -0.2000 
30    H11      3.8890  -40.1268   21.3997 H       1  LIG   0.0732   0.1000 
31    H12      3.0430  -39.6129   22.8177 H       1  LIG   0.0789   0.1000 
32    C15      1.6390  -40.0610   21.0880 C.3     1  LIG  -0.1196  -0.2000 
33    H13      0.6832  -39.9283   21.5242 H       1  LIG   0.0807   0.1000 
34    H14      1.5292  -40.4423   20.1061 H       1  LIG   0.0733   0.1000 
@<TRIPOS>BOND
1     2     1     ar
2     3     2     1
3     4     2     ar
4     5     4     1
5     6     4     ar
6     7     6     ar
7     8     7     1
8     9     8     1
9     10    8     1
10    11    10    1
11    12    11    ar
12    13    12    1
13    14    12    ar
14    15    14    1
15    16    14    ar
16    17    16    1
17    18    16    ar
18    19    11    ar
19    19    18    ar
20    20    19    1
21    21    1     ar
22    21    7     ar
23    21    20    1
24    22    6     1
25    23    22    1
26    24    22    1
27    25    22    1
28    26    10    2
29    27    20    1
30    28    27    1
31    29    27    1
32    30    29    1
33    31    29    1
34    32    27    1
35    32    29    1
36    33    32    1
37    34    32    1
@<TRIPOS>SUBSTRUCTURE
1   LIG    1    
 
########## Name        : 1VRT.lig
########## Description : AM1BCC_CHARGES =  -0.0002 ORIGINAL_CHARGES =  -0.0000

@<TRIPOS>MOLECULE
1VRT.lig
34    37    1     0     0    
SMALL
USER_CHARGES
@<TRIPOS>ATOM
1     N1       4.0540  -36.9310   22.2210 N.ar    1  LIG  -0.6650  -0.6200 
2     C1       4.9660  -36.2380   22.9390 C.ar    1  LIG   0.3947   0.1600 
3     H1       6.0082  -36.2811   22.6707 H       1  LIG   0.0281   0.1500 
4     C2       4.6240  -35.4500   24.0360 C.ar    1  LIG  -0.2334  -0.1500 
5     H2       5.3884  -34.9151   24.5740 H       1  LIG   0.1480   0.1500 
6     C3       3.3050  -35.3690   24.4150 C.ar    1  LIG  -0.0698  -0.1435 
7     C4       2.3460  -36.0770   23.6860 C.ar    1  LIG  -0.0398   0.1170 
8     N2       0.9890  -36.0280   24.1030 N.am    1  LIG  -0.4596  -0.5470 
9     H3       0.7643  -35.9928   25.0860 H       1  LIG   0.3311   0.3700 
10    C5      -0.1450  -36.0180   23.4080 C.2     1  LIG   0.7361   0.5438 
11    C6      -0.1190  -36.0770   21.8860 C.ar    1  LIG  -0.2550   0.0862 
12    C7      -1.1230  -35.3990   21.1890 C.ar    1  LIG  -0.0321  -0.1500 
13    H4      -1.7552  -34.6955   21.7041 H       1  LIG   0.1623   0.1500 
14    C8      -1.2960  -35.6300   19.8690 C.ar    1  LIG  -0.2723  -0.1500 
15    H5      -2.0662  -35.1073   19.3273 H       1  LIG   0.1522   0.1500 
16    C9      -0.4670  -36.5450   19.2400 C.ar    1  LIG   0.4373   0.1600 
17    H6      -0.5947  -36.7554   18.1915 H       1  LIG   0.0280   0.1500 
18    N3       0.5220  -37.2120   19.8740 N.ar    1  LIG  -0.6893  -0.6200 
19    C10      0.7040  -36.9790   21.1800 C.ar    1  LIG   0.6480   0.4100 
20    N4       1.7670  -37.6730   21.8260 N.pl3   1  LIG  -0.6924  -0.3690 
21    C11      2.7540  -36.8570   22.5840 C.ar    1  LIG   0.5805   0.4100 
22    C12      2.9040  -34.5090   25.6010 C.3     1  LIG  -0.0620   0.1435 
23    H7       2.2235  -33.7630   25.2820 H       1  LIG   0.0570   0.0000 
24    H8       2.4436  -35.1154   26.3371 H       1  LIG   0.0495   0.0000 
25    H9       3.7654  -34.0491   26.0108 H       1  LIG   0.0519   0.0000 
26    O1      -1.2400  -35.9060   23.9770 O.2     1  LIG  -0.6361  -0.5700 
27    C13      2.3440  -38.7570   21.0360 C.3     1  LIG   0.1354   0.0690 
28    H10      3.1238  -38.3754   20.4296 H       1  LIG   0.0981   0.1000 
29    C14      2.9380  -39.8900   21.8010 C.3     1  LIG  -0.1181  -0.2000 
30    H11      3.8890  -40.1268   21.3997 H       1  LIG   0.0732   0.1000 
31    H12      3.0430  -39.6129   22.8177 H       1  LIG   0.0789   0.1000 
32    C15      1.6390  -40.0610   21.0880 C.3     1  LIG  -0.1196  -0.2000 
33    H13      0.6832  -39.9283   21.5242 H       1  LIG   0.0807   0.1000 
34    H14      1.5292  -40.4423   20.1061 H       1  LIG   0.0733   0.1000 
@<TRIPOS>BOND
1     2     1     ar
2     3     2     1
3     4     2     ar
4     5     4     1
5     6     4     ar
6     7     6     ar
7     8     7     1
8     9     8     1
9     10    8     1
10    11    10    1
11    12    11    ar
12    13    12    1
13    14    12    ar
14    15    14    1
15    16    14    ar
16    17    16    1
17    18    16    ar
18    19    11    ar
19    19    18    ar
20    20    19    1
21    21    1     ar
22    21    7     ar
23    21    20    1
24    22    6     1
25    23    22    1
26    24    22    1
27    25    22    1
28    26    10    2
29    27    20    1
30    28    27    1
31    29    27    1
32    30    29    1
33    31    29    1
34    32    27    1
35    32    29    1
36    33    32    1
37    34    32    1
@<TRIPOS>SUBSTRUCTURE
1   LIG    1    
 
########## Name        : 1VRT.lig
########## Description : AM1BCC_CHARGES =  -0.0002 ORIGINAL_CHARGES =  -0.0000

@<TRIPOS>MOLECULE
1VRT.lig
34    37    1     0     0    
SMALL
USER_CHARGES
@<TRIPOS>ATOM
1     N1       4.0540  -36.9310   22.2210 N.ar    1  LIG  -0.6650  -0.6200 
2     C1       4.9660  -36.2380   22.9390 C.ar    1  LIG   0.3947   0.1600 
3     H1       6.0082  -36.2811   22.6707 H       1  LIG   0.0281   0.1500 
4     C2       4.6240  -35.4500   24.0360 C.ar    1  LIG  -0.2334  -0.1500 
5     H2       5.3884  -34.9151   24.5740 H       1  LIG   0.1480   0.1500 
6     C3       3.3050  -35.3690   24.4150 C.ar    1  LIG  -0.0698  -0.1435 
7     C4       2.3460  -36.0770   23.6860 C.ar    1  LIG  -0.0398   0.1170 
8     N2       0.9890  -36.0280   24.1030 N.am    1  LIG  -0.4596  -0.5470 
9     H3       0.7643  -35.9928   25.0860 H       1  LIG   0.3311   0.3700 
10    C5      -0.1450  -36.0180   23.4080 C.2     1  LIG   0.7361   0.5438 
11    C6      -0.1190  -36.0770   21.8860 C.ar    1  LIG  -0.2550   0.0862 
12    C7      -1.1230  -35.3990   21.1890 C.ar    1  LIG  -0.0321  -0.1500 
13    H4      -1.7552  -34.6955   21.7041 H       1  LIG   0.1623   0.1500 
14    C8      -1.2960  -35.6300   19.8690 C.ar    1  LIG  -0.2723  -0.1500 
15    H5      -2.0662  -35.1073   19.3273 H       1  LIG   0.1522   0.1500 
16    C9      -0.4670  -36.5450   19.2400 C.ar    1  LIG   0.4373   0.1600 
17    H6      -0.5947  -36.7554   18.1915 H       1  LIG   0.0280   0.1500 
18    N3       0.5220  -37.2120   19.8740 N.ar    1  LIG  -0.6893  -0.6200 
19    C10      0.7040  -36.9790   21.1800 C.ar    1  LIG   0.6480   0.4100 
20    N4       1.7670  -37.6730   21.8260 N.pl3   1  LIG  -0.6924  -0.3690 
21    C11      2.7540  -36.8570   22.5840 C.ar    1  LIG   0.5805   0.4100 
22    C12      2.9040  -34.5090   25.6010 C.3     1  LIG  -0.0620   0.1435 
23    H7       2.2235  -33.7630   25.2820 H       1  LIG   0.0570   0.0000 
24    H8       2.4436  -35.1154   26.3371 H       1  LIG   0.0495   0.0000 
25    H9       3.7654  -34.0491   26.0108 H       1  LIG   0.0519   0.0000 
26    O1      -1.2400  -35.9060   23.9770 O.2     1  LIG  -0.6361  -0.5700 
27    C13      2.3440  -38.7570   21.0360 C.3     1  LIG   0.1354   0.0690 
28    H10      3.1238  -38.3754   20.4296 H       1  LIG   0.0981   0.1000 
29    C14      2.9380  -39.8900   21.8010 C.3     1  LIG  -0.1181  -0.2000 
30    H11      3.8890  -40.1268   21.3997 H       1  LIG   0.0732   0.1000 
31    H12      3.0430  -39.6129   22.8177 H       1  LIG   0.0789   0.1000 
32    C15      1.6390  -40.0610   21.0880 C.3     1  LIG  -0.1196  -0.2000 
33    H13      0.6832  -39.9283   21.5242 H       1  LIG   0.0807   0.1000 
34    H14      1.5292  -40.4423   20.1061 H       1  LIG   0.0733   0.1000 
@<TRIPOS>BOND
1     2     1     ar
2     3     2     1
3     4     2     ar
4     5     4     1
5     6     4     ar
6     7     6     ar
7     8     7     1
8     9     8     1
9     10    8     1
10    11    10    1
11    12    11    ar
12    13    12    1
13    14    12    ar
14    15    14    1
15    16    14    ar
16    17    16    1
17    18    16    ar
18    19    11    ar
19    19    18    ar
20    20    19    1
21    21    1     ar
22    21    7     ar
23    21    20    1
24    22    6     1
25    23    22    1
26    24    22    1
27    25    22    1
28    26    10    2
29    27    20    1
30    28    27    1
31    29    27    1
32    30    29    1
33    31    29    1
34    32    27    1
35    32    29    1
36    33    32    1
37    34    32    1
@<TRIPOS>SUBSTRUCTURE
1   LIG    1    
 
########## Name        : 1VRT.lig
########## Description : AM1BCC_CHARGES =  -0.0002 ORIGINAL_CHARGES =  -0.0000

@<TRIPOS>MOLECULE
1VRT.lig
34    37    1     0     0    
SMALL
USER_CHARGES
@<TRIPOS>ATOM
1     N1       4.0540  -36.9310   22.2210 N.ar    1  LIG  -0.6650  -0.6200 
2     C1       4.9660  -36.2380   22.9390 C.ar    1  LIG   0.3947   0.1600 
3     H1       6.0082  -36.2811   22.6707 H       1  LIG   0.0281   0.1500 
4     C2       4.6240  -35.4500   24.0360 C.ar    1  LIG  -0.2334  -0.1500 
5     H2       5.3884  -34.9151   24.5740 H       1  LIG   0.1480   0.1500 
6     C3       3.3050  -35.3690   24.4150 C.ar    1  LIG  -0.0698  -0.1435 
7     C4       2.3460  -36.0770   23.6860 C.ar    1  LIG  -0.0398   0.1170 
8     N2       0.9890  -36.0280   24.1030 N.am    1  LIG  -0.4596  -0.5470 
9     H3       0.7643  -35.9928   25.0860 H       1  LIG   0.3311   0.3700 
10    C5      -0.1450  -36.0180   23.4080 C.2     1  LIG   0.7361   0.5438 
11    C6      -0.1190  -36.0770   21.8860 C.ar    1  LIG  -0.2550   0.0862 
12    C7      -1.1230  -35.3990   21.1890 C.ar    1  LIG  -0.0321  -0.1500 
13    H4      -1.7552  -34.6955   21.7041 H       1  LIG   0.1623   0.1500 
14    C8      -1.2960  -35.6300   19.8690 C.ar    1  LIG  -0.2723  -0.1500 
15    H5      -2.0662  -35.1073   19.3273 H       1  LIG   0.1522   0.1500 
16    C9      -0.4670  -36.5450   19.2400 C.ar    1  LIG   0.4373   0.1600 
17    H6      -0.5947  -36.7554   18.1915 H       1  LIG   0.0280   0.1500 
18    N3       0.5220  -37.2120   19.8740 N.ar    1  LIG  -0.6893  -0.6200 
19    C10      0.7040  -36.9790   21.1800 C.ar    1  LIG   0.6480   0.4100 
20    N4       1.7670  -37.6730   21.8260 N.pl3   1  LIG  -0.6924  -0.3690 
21    C11      2.7540  -36.8570   22.5840 C.ar    1  LIG   0.5805   0.4100 
22    C12      2.9040  -34.5090   25.6010 C.3     1  LIG  -0.0620   0.1435 
23    H7       2.2235  -33.7630   25.2820 H       1  LIG   0.0570   0.0000 
24    H8       2.4436  -35.1154   26.3371 H       1  LIG   0.0495   0.0000 
25    H9       3.7654  -34.0491   26.0108 H       1  LIG   0.0519   0.0000 
26    O1      -1.2400  -35.9060   23.9770 O.2     1  LIG  -0.6361  -0.5700 
27    C13      2.3440  -38.7570   21.0360 C.3     1  LIG   0.1354   0.0690 
28    H10      3.1238  -38.3754   20.4296 H       1  LIG   0.0981   0.1000 
29    C14      2.9380  -39.8900   21.8010 C.3     1  LIG  -0.1181  -0.2000 
30    H11      3.8890  -40.1268   21.3997 H       1  LIG   0.0732   0.1000 
31    H12      3.0430  -39.6129   22.8177 H       1  LIG   0.0789   0.1000 
32    C15      1.6390  -40.0610   21.0880 C.3     1  LIG  -0.1196  -0.2000 
33    H13      0.6832  -39.9283   21.5242 H       1  LIG   0.0807   0.1000 
34    H14      1.5292  -40.4423   20.1061 H       1  LIG   0.0733   0.1000 
@<TRIPOS>BOND
1     2     1     ar
2     3     2     1
3     4     2     ar
4     5     4     1
5     6     4     ar
6     7     6     ar
7     8     7     1
8     9     8     1
9     10    8     1
10    11    10    1
11    12    11    ar
12    13    12    1
13    14    12    ar
14    15    14    1
15    16    14    ar
16    17    16    1
17    18    16    ar
18    19    11    ar
19    19    18    ar
20    20    19    1
21    21    1     ar
22    21    7     ar
23    21    20    1
24    22    6     1
25    23    22    1
26    24    22    1
27    25    22    1
28    26    10    2
29    27    20    1
30    28    27    1
31    29    27    1
32    30    29    1
33    31    29    1
34    32    27    1
35    32    29    1
36    33    32    1
37    34    32    1
@<TRIPOS>SUBSTRUCTURE
1   LIG    1    
 
########## Name        : 1VRT.lig
########## Description : AM1BCC_CHARGES =  -0.0002 ORIGINAL_CHARGES =  -0.0000

@<TRIPOS>MOLECULE
1VRT.lig
34    37    1     0     0    
SMALL
USER_CHARGES
@<TRIPOS>ATOM
1     N1       4.0540  -36.9310   22.2210 N.ar    1  LIG  -0.6650  -0.6200 
2     C1       4.9660  -36.2380   22.9390 C.ar    1  LIG   0.3947   0.1600 
3     H1       6.0082  -36.2811   22.6707 H       1  LIG   0.0281   0.1500 
4     C2       4.6240  -35.4500   24.0360 C.ar    1  LIG  -0.2334  -0.1500 
5     H2       5.3884  -34.9151   24.5740 H       1  LIG   0.1480   0.1500 
6     C3       3.3050  -35.3690   24.4150 C.ar    1  LIG  -0.0698  -0.1435 
7     C4       2.3460  -36.0770   23.6860 C.ar    1  LIG  -0.0398   0.1170 
8     N2       0.9890  -36.0280   24.1030 N.am    1  LIG  -0.4596  -0.5470 
9     H3       0.7643  -35.9928   25.0860 H       1  LIG   0.3311   0.3700 
10    C5      -0.1450  -36.0180   23.4080 C.2     1  LIG   0.7361   0.5438 
11    C6      -0.1190  -36.0770   21.8860 C.ar    1  LIG  -0.2550   0.0862 
12    C7      -1.1230  -35.3990   21.1890 C.ar    1  LIG  -0.0321  -0.1500 
13    H4      -1.7552  -34.6955   21.7041 H       1  LIG   0.1623   0.1500 
14    C8      -1.2960  -35.6300   19.8690 C.ar    1  LIG  -0.2723  -0.1500 
15    H5      -2.0662  -35.1073   19.3273 H       1  LIG   0.1522   0.1500 
16    C9      -0.4670  -36.5450   19.2400 C.ar    1  LIG   0.4373   0.1600 
17    H6      -0.5947  -36.7554   18.1915 H       1  LIG   0.0280   0.1500 
18    N3       0.5220  -37.2120   19.8740 N.ar    1  LIG  -0.6893  -0.6200 
19    C10      0.7040  -36.9790   21.1800 C.ar    1  LIG   0.6480   0.4100 
20    N4       1.7670  -37.6730   21.8260 N.pl3   1  LIG  -0.6924  -0.3690 
21    C11      2.7540  -36.8570   22.5840 C.ar    1  LIG   0.5805   0.4100 
22    C12      2.9040  -34.5090   25.6010 C.3     1  LIG  -0.0620   0.1435 
23    H7       2.2235  -33.7630   25.2820 H       1  LIG   0.0570   0.0000 
24    H8       2.4436  -35.1154   26.3371 H       1  LIG   0.0495   0.0000 
25    H9       3.7654  -34.0491   26.0108 H       1  LIG   0.0519   0.0000 
26    O1      -1.2400  -35.9060   23.9770 O.2     1  LIG  -0.6361  -0.5700 
27    C13      2.3440  -38.7570   21.0360 C.3     1  LIG   0.1354   0.0690 
28    H10      3.1238  -38.3754   20.4296 H       1  LIG   0.0981   0.1000 
29    C14      2.9380  -39.8900   21.8010 C.3     1  LIG  -0.1181  -0.2000 
30    H11      3.8890  -40.1268   21.3997 H       1  LIG   0.0732   0.1000 
31    H12      3.0430  -39.6129   22.8177 H       1  LIG   0.0789   0.1000 
32    C15      1.6390  -40.0610   21.0880 C.3     1  LIG  -0.1196  -0.2000 
33    H13      0.6832  -39.9283   21.5242 H       1  LIG   0.0807   0.1000 
34    H14      1.5292  -40.4423   20.1061 H       1  LIG   0.0733   0.1000 
@<TRIPOS>BOND
1     2     1     ar
2     3     2     1
3     4     2     ar
4     5     4     1
5     6     4     ar
6     7     6     ar
7     8     7     1
8     9     8     1
9     10    8     1
10    11    10    1
11    12    11    ar
12    13    12    1
13    14    12    ar
14    15    14    1
15    16    14    ar
16    17    16    1
17    18    16    ar
18    19    11    ar
19    19    18    ar
20    20    19    1
21    21    1     ar
22    21    7     ar
23    21    20    1
24    22    6     1
25    23    22    1
26    24    22    1
27    25    22    1
28    26    10    2
29    27    20    1
30    28    27    1
31    29    27    1
32    30    29    1
33    31    29    1
34    32    27    1
35    32    29    1
36    33    32    1
37    34    32    1
@<TRIPOS>SUBSTRUCTURE
1   LIG    1    
 
########## Name        : 1VRT.lig
########## Description : AM1BCC_CHARGES =  -0.0002 ORIGINAL_CHARGES =  -0.0000

@<TRIPOS>MOLECULE
1VRT.lig
34    37    1     0     0    
SMALL
USER_CHARGES
@<TRIPOS>ATOM
1     N1       4.0540  -36.9310   22.2210 N.ar    1  LIG  -0.6650  -0.6200 
2     C1       4.9660  -36.2380   22.9390 C.ar    1  LIG   0.3947   0.1600 
3     H1       6.0082  -36.2811   22.6707 H       1  LIG   0.0281   0.1500 
4     C2       4.6240  -35.4500   24.0360 C.ar    1  LIG  -0.2334  -0.1500 
5     H2       5.3884  -34.9151   24.5740 H       1  LIG   0.1480   0.1500 
6     C3       3.3050  -35.3690   24.4150 C.ar    1  LIG  -0.0698  -0.1435 
7     C4       2.3460  -36.0770   23.6860 C.ar    1  LIG  -0.0398   0.1170 
8     N2       0.9890  -36.0280   24.1030 N.am    1  LIG  -0.4596  -0.5470 
9     H3       0.7643  -35.9928   25.0860 H       1  LIG   0.3311   0.3700 
10    C5      -0.1450  -36.0180   23.4080 C.2     1  LIG   0.7361   0.5438 
11    C6      -0.1190  -36.0770   21.8860 C.ar    1  LIG  -0.2550   0.0862 
12    C7      -1.1230  -35.3990   21.1890 C.ar    1  LIG  -0.0321  -0.1500 
13    H4      -1.7552  -34.6955   21.7041 H       1  LIG   0.1623   0.1500 
14    C8      -1.2960  -35.6300   19.8690 C.ar    1  LIG  -0.2723  -0.1500 
15    H5      -2.0662  -35.1073   19.3273 H       1  LIG   0.1522   0.1500 
16    C9      -0.4670  -36.5450   19.2400 C.ar    1  LIG   0.4373   0.1600 
17    H6      -0.5947  -36.7554   18.1915 H       1  LIG   0.0280   0.1500 
18    N3       0.5220  -37.2120   19.8740 N.ar    1  LIG  -0.6893  -0.6200 
19    C10      0.7040  -36.9790   21.1800 C.ar    1  LIG   0.6480   0.4100 
20    N4       1.7670  -37.6730   21.8260 N.pl3   1  LIG  -0.6924  -0.3690 
21    C11      2.7540  -36.8570   22.5840 C.ar    1  LIG   0.5805   0.4100 
22    C12      2.9040  -34.5090   25.6010 C.3     1  LIG  -0.0620   0.1435 
23    H7       2.2235  -33.7630   25.2820 H       1  LIG   0.0570   0.0000 
24    H8       2.4436  -35.1154   26.3371 H       1  LIG   0.0495   0.0000 
25    H9       3.7654  -34.0491   26.0108 H       1  LIG   0.0519   0.0000 
26    O1      -1.2400  -35.9060   23.9770 O.2     1  LIG  -0.6361  -0.5700 
27    C13      2.3440  -38.7570   21.0360 C.3     1  LIG   0.1354   0.0690 
28    H10      3.1238  -38.3754   20.4296 H       1  LIG   0.0981   0.1000 
29    C14      2.9380  -39.8900   21.8010 C.3     1  LIG  -0.1181  -0.2000 
30    H11      3.8890  -40.1268   21.3997 H       1  LIG   0.0732   0.1000 
31    H12      3.0430  -39.6129   22.8177 H       1  LIG   0.0789   0.1000 
32    C15      1.6390  -40.0610   21.0880 C.3     1  LIG  -0.1196  -0.2000 
33    H13      0.6832  -39.9283   21.5242 H       1  LIG   0.0807   0.1000 
34    H14      1.5292  -40.4423   20.1061 H       1  LIG   0.0733   0.1000 
@<TRIPOS>BOND
1     2     1     ar
2     3     2     1
3     4     2     ar
4     5     4     1
5     6     4     ar
6     7     6     ar
7     8     7     1
8     9     8     1
9     10    8     1
10    11    10    1
11    12    11    ar
12    13    12    1
13    14    12    ar
14    15    14    1
15    16    14    ar
16    17    16    1
17    18    16    ar
18    19    11    ar
19    19    18    ar
20    20    19    1
21    21    1     ar
22    21    7     ar
23    21    20    1
24    22    6     1
25    23    22    1
26    24    22    1
27    25    22    1
28    26    10    2
29    27    20    1
30    28    27    1
31    29    27    1
32    30    29    1
33    31    29    1
34    32    27    1
35    32    29    1
36    33    32    1
37    34    32    1
@<TRIPOS>SUBSTRUCTURE
1   LIG    1    
 
########## Name        : 1VRT.lig
########## Description : AM1BCC_CHARGES =  -0.0002 ORIGINAL_CHARGES =  -0.0000

@<TRIPOS>MOLECULE
1VRT.lig
34    37    1     0     0    
SMALL
USER_CHARGES
@<TRIPOS>ATOM
1     N1       4.0540  -36.9310   22.2210 N.ar    1  LIG  -0.6650  -0.6200 
2     C1       4.9660  -36.2380   22.9390 C.ar    1  LIG   0.3947   0.1600 
3     H1       6.0082  -36.2811   22.6707 H       1  LIG   0.0281   0.1500 
4     C2       4.6240  -35.4500   24.0360 C.ar    1  LIG  -0.2334  -0.1500 
5     H2       5.3884  -34.9151   24.5740 H       1  LIG   0.1480   0.1500 
6     C3       3.3050  -35.3690   24.4150 C.ar    1  LIG  -0.0698  -0.1435 
7     C4       2.3460  -36.0770   23.6860 C.ar    1  LIG  -0.0398   0.1170 
8     N2       0.9890  -36.0280   24.1030 N.am    1  LIG  -0.4596  -0.5470 
9     H3       0.7643  -35.9928   25.0860 H       1  LIG   0.3311   0.3700 
10    C5      -0.1450  -36.0180   23.4080 C.2     1  LIG   0.7361   0.5438 
11    C6      -0.1190  -36.0770   21.8860 C.ar    1  LIG  -0.2550   0.0862 
12    C7      -1.1230  -35.3990   21.1890 C.ar    1  LIG  -0.0321  -0.1500 
13    H4      -1.7552  -34.6955   21.7041 H       1  LIG   0.1623   0.1500 
14    C8      -1.2960  -35.6300   19.8690 C.ar    1  LIG  -0.2723  -0.1500 
15    H5      -2.0662  -35.1073   19.3273 H       1  LIG   0.1522   0.1500 
16    C9      -0.4670  -36.5450   19.2400 C.ar    1  LIG   0.4373   0.1600 
17    H6      -0.5947  -36.7554   18.1915 H       1  LIG   0.0280   0.1500 
18    N3       0.5220  -37.2120   19.8740 N.ar    1  LIG  -0.6893  -0.6200 
19    C10      0.7040  -36.9790   21.1800 C.ar    1  LIG   0.6480   0.4100 
20    N4       1.7670  -37.6730   21.8260 N.pl3   1  LIG  -0.6924  -0.3690 
21    C11      2.7540  -36.8570   22.5840 C.ar    1  LIG   0.5805   0.4100 
22    C12      2.9040  -34.5090   25.6010 C.3     1  LIG  -0.0620   0.1435 
23    H7       2.2235  -33.7630   25.2820 H       1  LIG   0.0570   0.0000 
24    H8       2.4436  -35.1154   26.3371 H       1  LIG   0.0495   0.0000 
25    H9       3.7654  -34.0491   26.0108 H       1  LIG   0.0519   0.0000 
26    O1      -1.2400  -35.9060   23.9770 O.2     1  LIG  -0.6361  -0.5700 
27    C13      2.3440  -38.7570   21.0360 C.3     1  LIG   0.1354   0.0690 
28    H10      3.1238  -38.3754   20.4296 H       1  LIG   0.0981   0.1000 
29    C14      2.9380  -39.8900   21.8010 C.3     1  LIG  -0.1181  -0.2000 
30    H11      3.8890  -40.1268   21.3997 H       1  LIG   0.0732   0.1000 
31    H12      3.0430  -39.6129   22.8177 H       1  LIG   0.0789   0.1000 
32    C15      1.6390  -40.0610   21.0880 C.3     1  LIG  -0.1196  -0.2000 
33    H13      0.6832  -39.9283   21.5242 H       1  LIG   0.0807   0.1000 
34    H14      1.5292  -40.4423   20.1061 H       1  LIG   0.0733   0.1000 
@<TRIPOS>BOND
1     2     1     ar
2     3     2     1
3     4     2     ar
4     5     4     1
5     6     4     ar
6     7     6     ar
7     8     7     1
8     9     8     1
9     10    8     1
10    11    10    1
11    12    11    ar
12    13    12    1
13    14    12    ar
14    15    14    1
15    16    14    ar
16    17    16    1
17    18    16    ar
18    19    11    ar
19    19    18    ar
20    20    19    1
21    21    1     ar
22    21    7     ar
23    21    20    1
24    22    6     1
25    23    22    1
26    24    22    1
27    25    22    1
28    26    10    2
29    27    20    1
30    28    27    1
31    29    27    1
32    30    29    1
33    31    29    1
34    32    27    1
35    32    29    1
36    33    32    1
37    34    32    1
@<TRIPOS>SUBSTRUCTURE
1   LIG    1    
 
########## Name        : 1VRT.lig
########## Description : AM1BCC_CHARGES =  -0.0002 ORIGINAL_CHARGES =  -0.0000

@<TRIPOS>MOLECULE
1VRT.lig
34    37    1     0     0    
SMALL
USER_CHARGES
@<TRIPOS>ATOM
1     N1       4.0540  -36.9310   22.2210 N.ar    1  LIG  -0.6650  -0.6200 
2     C1       4.9660  -36.2380   22.9390 C.ar    1  LIG   0.3947   0.1600 
3     H1       6.0082  -36.2811   22.6707 H       1  LIG   0.0281   0.1500 
4     C2       4.6240  -35.4500   24.0360 C.ar    1  LIG  -0.2334  -0.1500 
5     H2       5.3884  -34.9151   24.5740 H       1  LIG   0.1480   0.1500 
6     C3       3.3050  -35.3690   24.4150 C.ar    1  LIG  -0.0698  -0.1435 
7     C4       2.3460  -36.0770   23.6860 C.ar    1  LIG  -0.0398   0.1170 
8     N2       0.9890  -36.0280   24.1030 N.am    1  LIG  -0.4596  -0.5470 
9     H3       0.7643  -35.9928   25.0860 H       1  LIG   0.3311   0.3700 
10    C5      -0.1450  -36.0180   23.4080 C.2     1  LIG   0.7361   0.5438 
11    C6      -0.1190  -36.0770   21.8860 C.ar    1  LIG  -0.2550   0.0862 
12    C7      -1.1230  -35.3990   21.1890 C.ar    1  LIG  -0.0321  -0.1500 
13    H4      -1.7552  -34.6955   21.7041 H       1  LIG   0.1623   0.1500 
14    C8      -1.2960  -35.6300   19.8690 C.ar    1  LIG  -0.2723  -0.1500 
15    H5      -2.0662  -35.1073   19.3273 H       1  LIG   0.1522   0.1500 
16    C9      -0.4670  -36.5450   19.2400 C.ar    1  LIG   0.4373   0.1600 
17    H6      -0.5947  -36.7554   18.1915 H       1  LIG   0.0280   0.1500 
18    N3       0.5220  -37.2120   19.8740 N.ar    1  LIG  -0.6893  -0.6200 
19    C10      0.7040  -36.9790   21.1800 C.ar    1  LIG   0.6480   0.4100 
20    N4       1.7670  -37.6730   21.8260 N.pl3   1  LIG  -0.6924  -0.3690 
21    C11      2.7540  -36.8570   22.5840 C.ar    1  LIG   0.5805   0.4100 
22    C12      2.9040  -34.5090   25.6010 C.3     1  LIG  -0.0620   0.1435 
23    H7       2.2235  -33.7630   25.2820 H       1  LIG   0.0570   0.0000 
24    H8       2.4436  -35.1154   26.3371 H       1  LIG   0.0495   0.0000 
25    H9       3.7654  -34.0491   26.0108 H       1  LIG   0.0519   0.0000 
26    O1      -1.2400  -35.9060   23.9770 O.2     1  LIG  -0.6361  -0.5700 
27    C13      2.3440  -38.7570   21.0360 C.3     1  LIG   0.1354   0.0690 
28    H10      3.1238  -38.3754   20.4296 H       1  LIG   0.0981   0.1000 
29    C14      2.9380  -39.8900   21.8010 C.3     1  LIG  -0.1181  -0.2000 
30    H11      3.8890  -40.1268   21.3997 H       1  LIG   0.0732   0.1000 
31    H12      3.0430  -39.6129   22.8177 H       1  LIG   0.0789   0.1000 
32    C15      1.6390  -40.0610   21.0880 C.3     1  LIG  -0.1196  -0.2000 
33    H13      0.6832  -39.9283   21.5242 H       1  LIG   0.0807   0.1000 
34    H14      1.5292  -40.4423   20.1061 H       1  LIG   0.0733   0.1000 
@<TRIPOS>BOND
1     2     1     ar
2     3     2     1
3     4     2     ar
4     5     4     1
5     6     4     ar
6     7     6     ar
7     8     7     1
8     9     8     1
9     10    8     1
10    11    10    1
11    12    11    ar
12    13    12    1
13    14    12    ar
14    15    14    1
15    16    14    ar
16    17    16    1
17    18    16    ar
18    19    11    ar
19    19    18    ar
20    20    19    1
21    21    1     ar
22    21    7     ar
23    21    20    1
24    22    6     1
25    23    22    1
26    24    22    1
27    25    22    1
28    26    10    2
29    27    20    1
30    28    27    1
31    29    27    1
32    30    29    1
33    31    29    1
34    32    27    1
35    32    29    1
36    33    32    1
37    34    32    1
@<TRIPOS>SUBSTRUCTURE
1   LIG    1    
 
########## Name        : 1VRT.lig
########## Description : AM1BCC_CHARGES =  -0.0002 ORIGINAL_CHARGES =  -0.0000

@<TRIPOS>MOLECULE
1VRT.lig
34    37    1     0     0    
SMALL
USER_CHARGES
@<TRIPOS>ATOM
1     N1       4.0540  -36.9310   22.2210 N.ar    1  LIG  -0.6650  -0.6200 
2     C1       4.9660  -36.2380   22.9390 C.ar    1  LIG   0.3947   0.1600 
3     H1       6.0082  -36.2811   22.6707 H       1  LIG   0.0281   0.1500 
4     C2       4.6240  -35.4500   24.0360 C.ar    1  LIG  -0.2334  -0.1500 
5     H2       5.3884  -34.9151   24.5740 H       1  LIG   0.1480   0.1500 
6     C3       3.3050  -35.3690   24.4150 C.ar    1  LIG  -0.0698  -0.1435 
7     C4       2.3460  -36.0770   23.6860 C.ar    1  LIG  -0.0398   0.1170 
8     N2       0.9890  -36.0280   24.1030 N.am    1  LIG  -0.4596  -0.5470 
9     H3       0.7643  -35.9928   25.0860 H       1  LIG   0.3311   0.3700 
10    C5      -0.1450  -36.0180   23.4080 C.2     1  LIG   0.7361   0.5438 
11    C6      -0.1190  -36.0770   21.8860 C.ar    1  LIG  -0.2550   0.0862 
12    C7      -1.1230  -35.3990   21.1890 C.ar    1  LIG  -0.0321  -0.1500 
13    H4      -1.7552  -34.6955   21.7041 H       1  LIG   0.1623   0.1500 
14    C8      -1.2960  -35.6300   19.8690 C.ar    1  LIG  -0.2723  -0.1500 
15    H5      -2.0662  -35.1073   19.3273 H       1  LIG   0.1522   0.1500 
16    C9      -0.4670  -36.5450   19.2400 C.ar    1  LIG   0.4373   0.1600 
17    H6      -0.5947  -36.7554   18.1915 H       1  LIG   0.0280   0.1500 
18    N3       0.5220  -37.2120   19.8740 N.ar    1  LIG  -0.6893  -0.6200 
19    C10      0.7040  -36.9790   21.1800 C.ar    1  LIG   0.6480   0.4100 
20    N4       1.7670  -37.6730   21.8260 N.pl3   1  LIG  -0.6924  -0.3690 
21    C11      2.7540  -36.8570   22.5840 C.ar    1  LIG   0.5805   0.4100 
22    C12      2.9040  -34.5090   25.6010 C.3     1  LIG  -0.0620   0.1435 
23    H7       2.2235  -33.7630   25.2820 H       1  LIG   0.0570   0.0000 
24    H8       2.4436  -35.1154   26.3371 H       1  LIG   0.0495   0.0000 
25    H9       3.7654  -34.0491   26.0108 H       1  LIG   0.0519   0.0000 
26    O1      -1.2400  -35.9060   23.9770 O.2     1  LIG  -0.6361  -0.5700 
27    C13      2.3440  -38.7570   21.0360 C.3     1  LIG   0.1354   0.0690 
28    H10      3.1238  -38.3754   20.4296 H       1  LIG   0.0981   0.1000 
29    C14      2.9380  -39.8900   21.8010 C.3     1  LIG  -0.1181  -0.2000 
30    H11      3.8890  -40.1268   21.3997 H       1  LIG   0.0732   0.1000 
31    H12      3.0430  -39.6129   22.8177 H       1  LIG   0.0789   0.1000 
32    C15      1.6390  -40.0610   21.0880 C.3     1  LIG  -0.1196  -0.2000 
33    H13      0.6832  -39.9283   21.5242 H       1  LIG   0.0807   0.1000 
34    H14      1.5292  -40.4423   20.1061 H       1  LIG   0.0733   0.1000 
@<TRIPOS>BOND
1     2     1     ar
2     3     2     1
3     4     2     ar
4     5     4     1
5     6     4     ar
6     7     6     ar
7     8     7     1
8     9     8     1
9     10    8     1
10    11    10    1
11    12    11    ar
12    13    12    1
13    14    12    ar
14    15    14    1
15    16    14    ar
16    17    16    1
17    18    16    ar
18    19    11    ar
19    19    18    ar
20    20    19    1
21    21    1     ar
22    21    7     ar
23    21    20    1
24    22    6     1
25    23    22    1
26    24    22    1
27    25    22    1
28    26    10    2
29    27    20    1
30    28    27    1
31    29    27    1
32    30    29    1
33    31    29    1
34    32    27    1
35    32    29    1
36    33    32    1
37    34    32    1
@<TRIPOS>SUBSTRUCTURE
1   LIG    1    
 
########## Name        : 1VRT.lig
########## Description : AM1BCC_CHARGES =  -0.0002 ORIGINAL_CHARGES =  -0.0000

@<TRIPOS>MOLECULE
1VRT.lig
34    37    1     0     0    
SMALL
USER_CHARGES
@<TRIPOS>ATOM
1     N1       4.0540  -36.9310   22.2210 N.ar    1  LIG  -0.6650  -0.6200 
2     C1       4.9660  -36.2380   22.9390 C.ar    1  LIG   0.3947   0.1600 
3     H1       6.0082  -36.2811   22.6707 H       1  LIG   0.0281   0.1500 
4     C2       4.6240  -35.4500   24.0360 C.ar    1  LIG  -0.2334  -0.1500 
5     H2       5.3884  -34.9151   24.5740 H       1  LIG   0.1480   0.1500 
6     C3       3.3050  -35.3690   24.4150 C.ar    1  LIG  -0.0698  -0.1435 
7     C4       2.3460  -36.0770   23.6860 C.ar    1  LIG  -0.0398   0.1170 
8     N2       0.9890  -36.0280   24.1030 N.am    1  LIG  -0.4596  -0.5470 
9     H3       0.7643  -35.9928   25.0860 H       1  LIG   0.3311   0.3700 
10    C5      -0.1450  -36.0180   23.4080 C.2     1  LIG   0.7361   0.5438 
11    C6      -0.1190  -36.0770   21.8860 C.ar    1  LIG  -0.2550   0.0862 
12    C7      -1.1230  -35.3990   21.1890 C.ar    1  LIG  -0.0321  -0.1500 
13    H4      -1.7552  -34.6955   21.7041 H       1  LIG   0.1623   0.1500 
14    C8      -1.2960  -35.6300   19.8690 C.ar    1  LIG  -0.2723  -0.1500 
15    H5      -2.0662  -35.1073   19.3273 H       1  LIG   0.1522   0.1500 
16    C9      -0.4670  -36.5450   19.2400 C.ar    1  LIG   0.4373   0.1600 
17    H6      -0.5947  -36.7554   18.1915 H       1  LIG   0.0280   0.1500 
18    N3       0.5220  -37.2120   19.8740 N.ar    1  LIG  -0.6893  -0.6200 
19    C10      0.7040  -36.9790   21.1800 C.ar    1  LIG   0.6480   0.4100 
20    N4       1.7670  -37.6730   21.8260 N.pl3   1  LIG  -0.6924  -0.3690 
21    C11      2.7540  -36.8570   22.5840 C.ar    1  LIG   0.5805   0.4100 
22    C12      2.9040  -34.5090   25.6010 C.3     1  LIG  -0.0620   0.1435 
23    H7       2.2235  -33.7630   25.2820 H       1  LIG   0.0570   0.0000 
24    H8       2.4436  -35.1154   26.3371 H       1  LIG   0.0495   0.0000 
25    H9       3.7654  -34.0491   26.0108 H       1  LIG   0.0519   0.0000 
26    O1      -1.2400  -35.9060   23.9770 O.2     1  LIG  -0.6361  -0.5700 
27    C13      2.3440  -38.7570   21.0360 C.3     1  LIG   0.1354   0.0690 
28    H10      3.1238  -38.3754   20.4296 H       1  LIG   0.0981   0.1000 
29    C14      2.9380  -39.8900   21.8010 C.3     1  LIG  -0.1181  -0.2000 
30    H11      3.8890  -40.1268   21.3997 H       1  LIG   0.0732   0.1000 
31    H12      3.0430  -39.6129   22.8177 H       1  LIG   0.0789   0.1000 
32    C15      1.6390  -40.0610   21.0880 C.3     1  LIG  -0.1196  -0.2000 
33    H13      0.6832  -39.9283   21.5242 H       1  LIG   0.0807   0.1000 
34    H14      1.5292  -40.4423   20.1061 H       1  LIG   0.0733   0.1000 
@<TRIPOS>BOND
1     2     1     ar
2     3     2     1
3     4     2     ar
4     5     4     1
5     6     4     ar
6     7     6     ar
7     8     7     1
8     9     8     1
9     10    8     1
10    11    10    1
11    12    11    ar
12    13    12    1
13    14    12    ar
14    15    14    1
15    16    14    ar
16    17    16    1
17    18    16    ar
18    19    11    ar
19    19    18    ar
20    20    19    1
21    21    1     ar
22    21    7     ar
23    21    20    1
24    22    6     1
25    23    22    1
26    24    22    1
27    25    22    1
28    26    10    2
29    27    20    1
30    28    27    1
31    29    27    1
32    30    29    1
33    31    29    1
34    32    27    1
35    32    29    1
36    33    32    1
37    34    32    1
@<TRIPOS>SUBSTRUCTURE
1   LIG    1    
 
########## Name        : 1VRT.lig
########## Description : AM1BCC_CHARGES =  -0.0002 ORIGINAL_CHARGES =  -0.0000

@<TRIPOS>MOLECULE
1VRT.lig
34    37    1     0     0    
SMALL
USER_CHARGES
@<TRIPOS>ATOM
1     N1       4.0540  -36.9310   22.2210 N.ar    1  LIG  -0.6650  -0.6200 
2     C1       4.9660  -36.2380   22.9390 C.ar    1  LIG   0.3947   0.1600 
3     H1       6.0082  -36.2811   22.6707 H       1  LIG   0.0281   0.1500 
4     C2       4.6240  -35.4500   24.0360 C.ar    1  LIG  -0.2334  -0.1500 
5     H2       5.3884  -34.9151   24.5740 H       1  LIG   0.1480   0.1500 
6     C3       3.3050  -35.3690   24.4150 C.ar    1  LIG  -0.0698  -0.1435 
7     C4       2.3460  -36.0770   23.6860 C.ar    1  LIG  -0.0398   0.1170 
8     N2       0.9890  -36.0280   24.1030 N.am    1  LIG  -0.4596  -0.5470 
9     H3       0.7643  -35.9928   25.0860 H       1  LIG   0.3311   0.3700 
10    C5      -0.1450  -36.0180   23.4080 C.2     1  LIG   0.7361   0.5438 
11    C6      -0.1190  -36.0770   21.8860 C.ar    1  LIG  -0.2550   0.0862 
12    C7      -1.1230  -35.3990   21.1890 C.ar    1  LIG  -0.0321  -0.1500 
13    H4      -1.7552  -34.6955   21.7041 H       1  LIG   0.1623   0.1500 
14    C8      -1.2960  -35.6300   19.8690 C.ar    1  LIG  -0.2723  -0.1500 
15    H5      -2.0662  -35.1073   19.3273 H       1  LIG   0.1522   0.1500 
16    C9      -0.4670  -36.5450   19.2400 C.ar    1  LIG   0.4373   0.1600 
17    H6      -0.5947  -36.7554   18.1915 H       1  LIG   0.0280   0.1500 
18    N3       0.5220  -37.2120   19.8740 N.ar    1  LIG  -0.6893  -0.6200 
19    C10      0.7040  -36.9790   21.1800 C.ar    1  LIG   0.6480   0.4100 
20    N4       1.7670  -37.6730   21.8260 N.pl3   1  LIG  -0.6924  -0.3690 
21    C11      2.7540  -36.8570   22.5840 C.ar    1  LIG   0.5805   0.4100 
22    C12      2.9040  -34.5090   25.6010 C.3     1  LIG  -0.0620   0.1435 
23    H7       2.2235  -33.7630   25.2820 H       1  LIG   0.0570   0.0000 
24    H8       2.4436  -35.1154   26.3371 H       1  LIG   0.0495   0.0000 
25    H9       3.7654  -34.0491   26.0108 H       1  LIG   0.0519   0.0000 
26    O1      -1.2400  -35.9060   23.9770 O.2     1  LIG  -0.6361  -0.5700 
27    C13      2.3440  -38.7570   21.0360 C.3     1  LIG   0.1354   0.0690 
28    H10      3.1238  -38.3754   20.4296 H       1  LIG   0.0981   0.1000 
29    C14      2.9380  -39.8900   21.8010 C.3     1  LIG  -0.1181  -0.2000 
30    H11      3.8890  -40.1268   21.3997 H       1  LIG   0.0732   0.1000 
31    H12      3.0430  -39.6129   22.8177 H       1  LIG   0.0789   0.1000 
32    C15      1.6390  -40.0610   21.0880 C.3     1  LIG  -0.1196  -0.2000 
33    H13      0.6832  -39.9283   21.5242 H       1  LIG   0.0807   0.1000 
34    H14      1.5292  -40.4423   20.1061 H       1  LIG   0.0733   0.1000 
@<TRIPOS>BOND
1     2     1     ar
2     3     2     1
3     4     2     ar
4     5     4     1
5     6     4     ar
6     7     6     ar
7     8     7     1
8     9     8     1
9     10    8     1
10    11    10    1
11    12    11    ar
12    13    12    1
13    14    12    ar
14    15    14    1
15    16    14    ar
16    17    16    1
17    18    16    ar
18    19    11    ar
19    19    18    ar
20    20    19    1
21    21    1     ar
22    21    7     ar
23    21    20    1
24    22    6     1
25    23    22    1
26    24    22    1
27    25    22    1
28    26    10    2
29    27    20    1
30    28    27    1
31    29    27    1
32    30    29    1
33    31    29    1
34    32    27    1
35    32    29    1
36    33    32    1
37    34    32    1
@<TRIPOS>SUBSTRUCTURE
1   LIG    1    
 
########## Name        : 1VRT.lig
########## Description : AM1BCC_CHARGES =  -0.0002 ORIGINAL_CHARGES =  -0.0000

@<TRIPOS>MOLECULE
1VRT.lig
34    37    1     0     0    
SMALL
USER_CHARGES
@<TRIPOS>ATOM
1     N1       4.0540  -36.9310   22.2210 N.ar    1  LIG  -0.6650  -0.6200 
2     C1       4.9660  -36.2380   22.9390 C.ar    1  LIG   0.3947   0.1600 
3     H1       6.0082  -36.2811   22.6707 H       1  LIG   0.0281   0.1500 
4     C2       4.6240  -35.4500   24.0360 C.ar    1  LIG  -0.2334  -0.1500 
5     H2       5.3884  -34.9151   24.5740 H       1  LIG   0.1480   0.1500 
6     C3       3.3050  -35.3690   24.4150 C.ar    1  LIG  -0.0698  -0.1435 
7     C4       2.3460  -36.0770   23.6860 C.ar    1  LIG  -0.0398   0.1170 
8     N2       0.9890  -36.0280   24.1030 N.am    1  LIG  -0.4596  -0.5470 
9     H3       0.7643  -35.9928   25.0860 H       1  LIG   0.3311   0.3700 
10    C5      -0.1450  -36.0180   23.4080 C.2     1  LIG   0.7361   0.5438 
11    C6      -0.1190  -36.0770   21.8860 C.ar    1  LIG  -0.2550   0.0862 
12    C7      -1.1230  -35.3990   21.1890 C.ar    1  LIG  -0.0321  -0.1500 
13    H4      -1.7552  -34.6955   21.7041 H       1  LIG   0.1623   0.1500 
14    C8      -1.2960  -35.6300   19.8690 C.ar    1  LIG  -0.2723  -0.1500 
15    H5      -2.0662  -35.1073   19.3273 H       1  LIG   0.1522   0.1500 
16    C9      -0.4670  -36.5450   19.2400 C.ar    1  LIG   0.4373   0.1600 
17    H6      -0.5947  -36.7554   18.1915 H       1  LIG   0.0280   0.1500 
18    N3       0.5220  -37.2120   19.8740 N.ar    1  LIG  -0.6893  -0.6200 
19    C10      0.7040  -36.9790   21.1800 C.ar    1  LIG   0.6480   0.4100 
20    N4       1.7670  -37.6730   21.8260 N.pl3   1  LIG  -0.6924  -0.3690 
21    C11      2.7540  -36.8570   22.5840 C.ar    1  LIG   0.5805   0.4100 
22    C12      2.9040  -34.5090   25.6010 C.3     1  LIG  -0.0620   0.1435 
23    H7       2.2235  -33.7630   25.2820 H       1  LIG   0.0570   0.0000 
24    H8       2.4436  -35.1154   26.3371 H       1  LIG   0.0495   0.0000 
25    H9       3.7654  -34.0491   26.0108 H       1  LIG   0.0519   0.0000 
26    O1      -1.2400  -35.9060   23.9770 O.2     1  LIG  -0.6361  -0.5700 
27    C13      2.3440  -38.7570   21.0360 C.3     1  LIG   0.1354   0.0690 
28    H10      3.1238  -38.3754   20.4296 H       1  LIG   0.0981   0.1000 
29    C14      2.9380  -39.8900   21.8010 C.3     1  LIG  -0.1181  -0.2000 
30    H11      3.8890  -40.1268   21.3997 H       1  LIG   0.0732   0.1000 
31    H12      3.0430  -39.6129   22.8177 H       1  LIG   0.0789   0.1000 
32    C15      1.6390  -40.0610   21.0880 C.3     1  LIG  -0.1196  -0.2000 
33    H13      0.6832  -39.9283   21.5242 H       1  LIG   0.0807   0.1000 
34    H14      1.5292  -40.4423   20.1061 H       1  LIG   0.0733   0.1000 
@<TRIPOS>BOND
1     2     1     ar
2     3     2     1
3     4     2     ar
4     5     4     1
5     6     4     ar
6     7     6     ar
7     8     7     1
8     9     8     1
9     10    8     1
10    11    10    1
11    12    11    ar
12    13    12    1
13    14    12    ar
14    15    14    1
15    16    14    ar
16    17    16    1
17    18    16    ar
18    19    11    ar
19    19    18    ar
20    20    19    1
21    21    1     ar
22    21    7     ar
23    21    20    1
24    22    6     1
25    23    22    1
26    24    22    1
27    25    22    1
28    26    10    2
29    27    20    1
30    28    27    1
31    29    27    1
32    30    29    1
33    31    29    1
34    32    27    1
35    32    29    1
36    33    32    1
37    34    32    1
@<TRIPOS>SUBSTRUCTURE
1   LIG    1    
 
########## Name        : 1VRT.lig
########## Description : AM1BCC_CHARGES =  -0.0002 ORIGINAL_CHARGES =  -0.0000

@<TRIPOS>MOLECULE
1VRT.lig
34    37    1     0     0    
SMALL
USER_CHARGES
@<TRIPOS>ATOM
1     N1       4.0540  -36.9310   22.2210 N.ar    1  LIG  -0.6650  -0.6200 
2     C1       4.9660  -36.2380   22.9390 C.ar    1  LIG   0.3947   0.1600 
3     H1       6.0082  -36.2811   22.6707 H       1  LIG   0.0281   0.1500 
4     C2       4.6240  -35.4500   24.0360 C.ar    1  LIG  -0.2334  -0.1500 
5     H2       5.3884  -34.9151   24.5740 H       1  LIG   0.1480   0.1500 
6     C3       3.3050  -35.3690   24.4150 C.ar    1  LIG  -0.0698  -0.1435 
7     C4       2.3460  -36.0770   23.6860 C.ar    1  LIG  -0.0398   0.1170 
8     N2       0.9890  -36.0280   24.1030 N.am    1  LIG  -0.4596  -0.5470 
9     H3       0.7643  -35.9928   25.0860 H       1  LIG   0.3311   0.3700 
10    C5      -0.1450  -36.0180   23.4080 C.2     1  LIG   0.7361   0.5438 
11    C6      -0.1190  -36.0770   21.8860 C.ar    1  LIG  -0.2550   0.0862 
12    C7      -1.1230  -35.3990   21.1890 C.ar    1  LIG  -0.0321  -0.1500 
13    H4      -1.7552  -34.6955   21.7041 H       1  LIG   0.1623   0.1500 
14    C8      -1.2960  -35.6300   19.8690 C.ar    1  LIG  -0.2723  -0.1500 
15    H5      -2.0662  -35.1073   19.3273 H       1  LIG   0.1522   0.1500 
16    C9      -0.4670  -36.5450   19.2400 C.ar    1  LIG   0.4373   0.1600 
17    H6      -0.5947  -36.7554   18.1915 H       1  LIG   0.0280   0.1500 
18    N3       0.5220  -37.2120   19.8740 N.ar    1  LIG  -0.6893  -0.6200 
19    C10      0.7040  -36.9790   21.1800 C.ar    1  LIG   0.6480   0.4100 
20    N4       1.7670  -37.6730   21.8260 N.pl3   1  LIG  -0.6924  -0.3690 
21    C11      2.7540  -36.8570   22.5840 C.ar    1  LIG   0.5805   0.4100 
22    C12      2.9040  -34.5090   25.6010 C.3     1  LIG  -0.0620   0.1435 
23    H7       2.2235  -33.7630   25.2820 H       1  LIG   0.0570   0.0000 
24    H8       2.4436  -35.1154   26.3371 H       1  LIG   0.0495   0.0000 
25    H9       3.7654  -34.0491   26.0108 H       1  LIG   0.0519   0.0000 
26    O1      -1.2400  -35.9060   23.9770 O.2     1  LIG  -0.6361  -0.5700 
27    C13      2.3440  -38.7570   21.0360 C.3     1  LIG   0.1354   0.0690 
28    H10      3.1238  -38.3754   20.4296 H       1  LIG   0.0981   0.1000 
29    C14      2.9380  -39.8900   21.8010 C.3     1  LIG  -0.1181  -0.2000 
30    H11      3.8890  -40.1268   21.3997 H       1  LIG   0.0732   0.1000 
31    H12      3.0430  -39.6129   22.8177 H       1  LIG   0.0789   0.1000 
32    C15      1.6390  -40.0610   21.0880 C.3     1  LIG  -0.1196  -0.2000 
33    H13      0.6832  -39.9283   21.5242 H       1  LIG   0.0807   0.1000 
34    H14      1.5292  -40.4423   20.1061 H       1  LIG   0.0733   0.1000 
@<TRIPOS>BOND
1     2     1     ar
2     3     2     1
3     4     2     ar
4     5     4     1
5     6     4     ar
6     7     6     ar
7     8     7     1
8     9     8     1
9     10    8     1
10    11    10    1
11    12    11    ar
12    13    12    1
13    14    12    ar
14    15    14    1
15    16    14    ar
16    17    16    1
17    18    16    ar
18    19    11    ar
19    19    18    ar
20    20    19    1
21    21    1     ar
22    21    7     ar
23    21    20    1
24    22    6     1
25    23    22    1
26    24    22    1
27    25    22    1
28    26    10    2
29    27    20    1
30    28    27    1
31    29    27    1
32    30    29    1
33    31    29    1
34    32    27    1
35    32    29    1
36    33    32    1
37    34    32    1
@<TRIPOS>SUBSTRUCTURE
1   LIG    1    
 
########## Name        : 1VRT.lig
########## Description : AM1BCC_CHARGES =  -0.0002 ORIGINAL_CHARGES =  -0.0000

@<TRIPOS>MOLECULE
1VRT.lig
34    37    1     0     0    
SMALL
USER_CHARGES
@<TRIPOS>ATOM
1     N1       4.0540  -36.9310   22.2210 N.ar    1  LIG  -0.6650  -0.6200 
2     C1       4.9660  -36.2380   22.9390 C.ar    1  LIG   0.3947   0.1600 
3     H1       6.0082  -36.2811   22.6707 H       1  LIG   0.0281   0.1500 
4     C2       4.6240  -35.4500   24.0360 C.ar    1  LIG  -0.2334  -0.1500 
5     H2       5.3884  -34.9151   24.5740 H       1  LIG   0.1480   0.1500 
6     C3       3.3050  -35.3690   24.4150 C.ar    1  LIG  -0.0698  -0.1435 
7     C4       2.3460  -36.0770   23.6860 C.ar    1  LIG  -0.0398   0.1170 
8     N2       0.9890  -36.0280   24.1030 N.am    1  LIG  -0.4596  -0.5470 
9     H3       0.7643  -35.9928   25.0860 H       1  LIG   0.3311   0.3700 
10    C5      -0.1450  -36.0180   23.4080 C.2     1  LIG   0.7361   0.5438 
11    C6      -0.1190  -36.0770   21.8860 C.ar    1  LIG  -0.2550   0.0862 
12    C7      -1.1230  -35.3990   21.1890 C.ar    1  LIG  -0.0321  -0.1500 
13    H4      -1.7552  -34.6955   21.7041 H       1  LIG   0.1623   0.1500 
14    C8      -1.2960  -35.6300   19.8690 C.ar    1  LIG  -0.2723  -0.1500 
15    H5      -2.0662  -35.1073   19.3273 H       1  LIG   0.1522   0.1500 
16    C9      -0.4670  -36.5450   19.2400 C.ar    1  LIG   0.4373   0.1600 
17    H6      -0.5947  -36.7554   18.1915 H       1  LIG   0.0280   0.1500 
18    N3       0.5220  -37.2120   19.8740 N.ar    1  LIG  -0.6893  -0.6200 
19    C10      0.7040  -36.9790   21.1800 C.ar    1  LIG   0.6480   0.4100 
20    N4       1.7670  -37.6730   21.8260 N.pl3   1  LIG  -0.6924  -0.3690 
21    C11      2.7540  -36.8570   22.5840 C.ar    1  LIG   0.5805   0.4100 
22    C12      2.9040  -34.5090   25.6010 C.3     1  LIG  -0.0620   0.1435 
23    H7       2.2235  -33.7630   25.2820 H       1  LIG   0.0570   0.0000 
24    H8       2.4436  -35.1154   26.3371 H       1  LIG   0.0495   0.0000 
25    H9       3.7654  -34.0491   26.0108 H       1  LIG   0.0519   0.0000 
26    O1      -1.2400  -35.9060   23.9770 O.2     1  LIG  -0.6361  -0.5700 
27    C13      2.3440  -38.7570   21.0360 C.3     1  LIG   0.1354   0.0690 
28    H10      3.1238  -38.3754   20.4296 H       1  LIG   0.0981   0.1000 
29    C14      2.9380  -39.8900   21.8010 C.3     1  LIG  -0.1181  -0.2000 
30    H11      3.8890  -40.1268   21.3997 H       1  LIG   0.0732   0.1000 
31    H12      3.0430  -39.6129   22.8177 H       1  LIG   0.0789   0.1000 
32    C15      1.6390  -40.0610   21.0880 C.3     1  LIG  -0.1196  -0.2000 
33    H13      0.6832  -39.9283   21.5242 H       1  LIG   0.0807   0.1000 
34    H14      1.5292  -40.4423   20.1061 H       1  LIG   0.0733   0.1000 
@<TRIPOS>BOND
1     2     1     ar
2     3     2     1
3     4     2     ar
4     5     4     1
5     6     4     ar
6     7     6     ar
7     8     7     1
8     9     8     1
9     10    8     1
10    11    10    1
11    12    11    ar
12    13    12    1
13    14    12    ar
14    15    14    1
15    16    14    ar
16    17    16    1
17    18    16    ar
18    19    11    ar
19    19    18    ar
20    20    19    1
21    21    1     ar
22    21    7     ar
23    21    20    1
24    22    6     1
25    23    22    1
26    24    22    1
27    25    22    1
28    26    10    2
29    27    20    1
30    28    27    1
31    29    27    1
32    30    29    1
33    31    29    1
34    32    27    1
35    32    29    1
36    33    32    1
37    34    32    1
@<TRIPOS>SUBSTRUCTURE
1   LIG    1    
 
########## Name        : 1VRT.lig
########## Description : AM1BCC_CHARGES =  -0.0002 ORIGINAL_CHARGES =  -0.0000

@<TRIPOS>MOLECULE
1VRT.lig
34    37    1     0     0    
SMALL
USER_CHARGES
@<TRIPOS>ATOM
1     N1       4.0540  -36.9310   22.2210 N.ar    1  LIG  -0.6650  -0.6200 
2     C1       4.9660  -36.2380   22.9390 C.ar    1  LIG   0.3947   0.1600 
3     H1       6.0082  -36.2811   22.6707 H       1  LIG   0.0281   0.1500 
4     C2       4.6240  -35.4500   24.0360 C.ar    1  LIG  -0.2334  -0.1500 
5     H2       5.3884  -34.9151   24.5740 H       1  LIG   0.1480   0.1500 
6     C3       3.3050  -35.3690   24.4150 C.ar    1  LIG  -0.0698  -0.1435 
7     C4       2.3460  -36.0770   23.6860 C.ar    1  LIG  -0.0398   0.1170 
8     N2       0.9890  -36.0280   24.1030 N.am    1  LIG  -0.4596  -0.5470 
9     H3       0.7643  -35.9928   25.0860 H       1  LIG   0.3311   0.3700 
10    C5      -0.1450  -36.0180   23.4080 C.2     1  LIG   0.7361   0.5438 
11    C6      -0.1190  -36.0770   21.8860 C.ar    1  LIG  -0.2550   0.0862 
12    C7      -1.1230  -35.3990   21.1890 C.ar    1  LIG  -0.0321  -0.1500 
13    H4      -1.7552  -34.6955   21.7041 H       1  LIG   0.1623   0.1500 
14    C8      -1.2960  -35.6300   19.8690 C.ar    1  LIG  -0.2723  -0.1500 
15    H5      -2.0662  -35.1073   19.3273 H       1  LIG   0.1522   0.1500 
16    C9      -0.4670  -36.5450   19.2400 C.ar    1  LIG   0.4373   0.1600 
17    H6      -0.5947  -36.7554   18.1915 H       1  LIG   0.0280   0.1500 
18    N3       0.5220  -37.2120   19.8740 N.ar    1  LIG  -0.6893  -0.6200 
19    C10      0.7040  -36.9790   21.1800 C.ar    1  LIG   0.6480   0.4100 
20    N4       1.7670  -37.6730   21.8260 N.pl3   1  LIG  -0.6924  -0.3690 
21    C11      2.7540  -36.8570   22.5840 C.ar    1  LIG   0.5805   0.4100 
22    C12      2.9040  -34.5090   25.6010 C.3     1  LIG  -0.0620   0.1435 
23    H7       2.2235  -33.7630   25.2820 H       1  LIG   0.0570   0.0000 
24    H8       2.4436  -35.1154   26.3371 H       1  LIG   0.0495   0.0000 
25    H9       3.7654  -34.0491   26.0108 H       1  LIG   0.0519   0.0000 
26    O1      -1.2400  -35.9060   23.9770 O.2     1  LIG  -0.6361  -0.5700 
27    C13      2.3440  -38.7570   21.0360 C.3     1  LIG   0.1354   0.0690 
28    H10      3.1238  -38.3754   20.4296 H       1  LIG   0.0981   0.1000 
29    C14      2.9380  -39.8900   21.8010 C.3     1  LIG  -0.1181  -0.2000 
30    H11      3.8890  -40.1268   21.3997 H       1  LIG   0.0732   0.1000 
31    H12      3.0430  -39.6129   22.8177 H       1  LIG   0.0789   0.1000 
32    C15      1.6390  -40.0610   21.0880 C.3     1  LIG  -0.1196  -0.2000 
33    H13      0.6832  -39.9283   21.5242 H       1  LIG   0.0807   0.1000 
34    H14      1.5292  -40.4423   20.1061 H       1  LIG   0.0733   0.1000 
@<TRIPOS>BOND
1     2     1     ar
2     3     2     1
3     4     2     ar
4     5     4     1
5     6     4     ar
6     7     6     ar
7     8     7     1
8     9     8     1
9     10    8     1
10    11    10    1
11    12    11    ar
12    13    12    1
13    14    12    ar
14    15    14    1
15    16    14    ar
16    17    16    1
17    18    16    ar
18    19    11    ar
19    19    18    ar
20    20    19    1
21    21    1     ar
22    21    7     ar
23    21    20    1
24    22    6     1
25    23    22    1
26    24    22    1
27    25    22    1
28    26    10    2
29    27    20    1
30    28    27    1
31    29    27    1
32    30    29    1
33    31    29    1
34    32    27    1
35    32    29    1
36    33    32    1
37    34    32    1
@<TRIPOS>SUBSTRUCTURE
1   LIG    1    
 
########## Name        : 1VRT.lig
########## Description : AM1BCC_CHARGES =  -0.0002 ORIGINAL_CHARGES =  -0.0000

@<TRIPOS>MOLECULE
1VRT.lig
34    37    1     0     0    
SMALL
USER_CHARGES
@<TRIPOS>ATOM
1     N1       4.0540  -36.9310   22.2210 N.ar    1  LIG  -0.6650  -0.6200 
2     C1       4.9660  -36.2380   22.9390 C.ar    1  LIG   0.3947   0.1600 
3     H1       6.0082  -36.2811   22.6707 H       1  LIG   0.0281   0.1500 
4     C2       4.6240  -35.4500   24.0360 C.ar    1  LIG  -0.2334  -0.1500 
5     H2       5.3884  -34.9151   24.5740 H       1  LIG   0.1480   0.1500 
6     C3       3.3050  -35.3690   24.4150 C.ar    1  LIG  -0.0698  -0.1435 
7     C4       2.3460  -36.0770   23.6860 C.ar    1  LIG  -0.0398   0.1170 
8     N2       0.9890  -36.0280   24.1030 N.am    1  LIG  -0.4596  -0.5470 
9     H3       0.7643  -35.9928   25.0860 H       1  LIG   0.3311   0.3700 
10    C5      -0.1450  -36.0180   23.4080 C.2     1  LIG   0.7361   0.5438 
11    C6      -0.1190  -36.0770   21.8860 C.ar    1  LIG  -0.2550   0.0862 
12    C7      -1.1230  -35.3990   21.1890 C.ar    1  LIG  -0.0321  -0.1500 
13    H4      -1.7552  -34.6955   21.7041 H       1  LIG   0.1623   0.1500 
14    C8      -1.2960  -35.6300   19.8690 C.ar    1  LIG  -0.2723  -0.1500 
15    H5      -2.0662  -35.1073   19.3273 H       1  LIG   0.1522   0.1500 
16    C9      -0.4670  -36.5450   19.2400 C.ar    1  LIG   0.4373   0.1600 
17    H6      -0.5947  -36.7554   18.1915 H       1  LIG   0.0280   0.1500 
18    N3       0.5220  -37.2120   19.8740 N.ar    1  LIG  -0.6893  -0.6200 
19    C10      0.7040  -36.9790   21.1800 C.ar    1  LIG   0.6480   0.4100 
20    N4       1.7670  -37.6730   21.8260 N.pl3   1  LIG  -0.6924  -0.3690 
21    C11      2.7540  -36.8570   22.5840 C.ar    1  LIG   0.5805   0.4100 
22    C12      2.9040  -34.5090   25.6010 C.3     1  LIG  -0.0620   0.1435 
23    H7       2.2235  -33.7630   25.2820 H       1  LIG   0.0570   0.0000 
24    H8       2.4436  -35.1154   26.3371 H       1  LIG   0.0495   0.0000 
25    H9       3.7654  -34.0491   26.0108 H       1  LIG   0.0519   0.0000 
26    O1      -1.2400  -35.9060   23.9770 O.2     1  LIG  -0.6361  -0.5700 
27    C13      2.3440  -38.7570   21.0360 C.3     1  LIG   0.1354   0.0690 
28    H10      3.1238  -38.3754   20.4296 H       1  LIG   0.0981   0.1000 
29    C14      2.9380  -39.8900   21.8010 C.3     1  LIG  -0.1181  -0.2000 
30    H11      3.8890  -40.1268   21.3997 H       1  LIG   0.0732   0.1000 
31    H12      3.0430  -39.6129   22.8177 H       1  LIG   0.0789   0.1000 
32    C15      1.6390  -40.0610   21.0880 C.3     1  LIG  -0.1196  -0.2000 
33    H13      0.6832  -39.9283   21.5242 H       1  LIG   0.0807   0.1000 
34    H14      1.5292  -40.4423   20.1061 H       1  LIG   0.0733   0.1000 
@<TRIPOS>BOND
1     2     1     ar
2     3     2     1
3     4     2     ar
4     5     4     1
5     6     4     ar
6     7     6     ar
7     8     7     1
8     9     8     1
9     10    8     1
10    11    10    1
11    12    11    ar
12    13    12    1
13    14    12    ar
14    15    14    1
15    16    14    ar
16    17    16    1
17    18    16    ar
18    19    11    ar
19    19    18    ar
20    20    19    1
21    21    1     ar
22    21    7     ar
23    21    20    1
24    22    6     1
25    23    22    1
26    24    22    1
27    25    22    1
28    26    10    2
29    27    20    1
30    28    27    1
31    29    27    1
32    30    29    1
33    31    29    1
34    32    27    1
35    32    29    1
36    33    32    1
37    34    32    1
@<TRIPOS>SUBSTRUCTURE
1   LIG    1    
 
########## Name        : 1VRT.lig
########## Description : AM1BCC_CHARGES =  -0.0002 ORIGINAL_CHARGES =  -0.0000

@<TRIPOS>MOLECULE
1VRT.lig
34    37    1     0     0    
SMALL
USER_CHARGES
@<TRIPOS>ATOM
1     N1       4.0540  -36.9310   22.2210 N.ar    1  LIG  -0.6650  -0.6200 
2     C1       4.9660  -36.2380   22.9390 C.ar    1  LIG   0.3947   0.1600 
3     H1       6.0082  -36.2811   22.6707 H       1  LIG   0.0281   0.1500 
4     C2       4.6240  -35.4500   24.0360 C.ar    1  LIG  -0.2334  -0.1500 
5     H2       5.3884  -34.9151   24.5740 H       1  LIG   0.1480   0.1500 
6     C3       3.3050  -35.3690   24.4150 C.ar    1  LIG  -0.0698  -0.1435 
7     C4       2.3460  -36.0770   23.6860 C.ar    1  LIG  -0.0398   0.1170 
8     N2       0.9890  -36.0280   24.1030 N.am    1  LIG  -0.4596  -0.5470 
9     H3       0.7643  -35.9928   25.0860 H       1  LIG   0.3311   0.3700 
10    C5      -0.1450  -36.0180   23.4080 C.2     1  LIG   0.7361   0.5438 
11    C6      -0.1190  -36.0770   21.8860 C.ar    1  LIG  -0.2550   0.0862 
12    C7      -1.1230  -35.3990   21.1890 C.ar    1  LIG  -0.0321  -0.1500 
13    H4      -1.7552  -34.6955   21.7041 H       1  LIG   0.1623   0.1500 
14    C8      -1.2960  -35.6300   19.8690 C.ar    1  LIG  -0.2723  -0.1500 
15    H5      -2.0662  -35.1073   19.3273 H       1  LIG   0.1522   0.1500 
16    C9      -0.4670  -36.5450   19.2400 C.ar    1  LIG   0.4373   0.1600 
17    H6      -0.5947  -36.7554   18.1915 H       1  LIG   0.0280   0.1500 
18    N3       0.5220  -37.2120   19.8740 N.ar    1  LIG  -0.6893  -0.6200 
19    C10      0.7040  -36.9790   21.1800 C.ar    1  LIG   0.6480   0.4100 
20    N4       1.7670  -37.6730   21.8260 N.pl3   1  LIG  -0.6924  -0.3690 
21    C11      2.7540  -36.8570   22.5840 C.ar    1  LIG   0.5805   0.4100 
22    C12      2.9040  -34.5090   25.6010 C.3     1  LIG  -0.0620   0.1435 
23    H7       2.2235  -33.7630   25.2820 H       1  LIG   0.0570   0.0000 
24    H8       2.4436  -35.1154   26.3371 H       1  LIG   0.0495   0.0000 
25    H9       3.7654  -34.0491   26.0108 H       1  LIG   0.0519   0.0000 
26    O1      -1.2400  -35.9060   23.9770 O.2     1  LIG  -0.6361  -0.5700 
27    C13      2.3440  -38.7570   21.0360 C.3     1  LIG   0.1354   0.0690 
28    H10      3.1238  -38.3754   20.4296 H       1  LIG   0.0981   0.1000 
29    C14      2.9380  -39.8900   21.8010 C.3     1  LIG  -0.1181  -0.2000 
30    H11      3.8890  -40.1268   21.3997 H       1  LIG   0.0732   0.1000 
31    H12      3.0430  -39.6129   22.8177 H       1  LIG   0.0789   0.1000 
32    C15      1.6390  -40.0610   21.0880 C.3     1  LIG  -0.1196  -0.2000 
33    H13      0.6832  -39.9283   21.5242 H       1  LIG   0.0807   0.1000 
34    H14      1.5292  -40.4423   20.1061 H       1  LIG   0.0733   0.1000 
@<TRIPOS>BOND
1     2     1     ar
2     3     2     1
3     4     2     ar
4     5     4     1
5     6     4     ar
6     7     6     ar
7     8     7     1
8     9     8     1
9     10    8     1
10    11    10    1
11    12    11    ar
12    13    12    1
13    14    12    ar
14    15    14    1
15    16    14    ar
16    17    16    1
17    18    16    ar
18    19    11    ar
19    19    18    ar
20    20    19    1
21    21    1     ar
22    21    7     ar
23    21    20    1
24    22    6     1
25    23    22    1
26    24    22    1
27    25    22    1
28    26    10    2
29    27    20    1
30    28    27    1
31    29    27    1
32    30    29    1
33    31    29    1
34    32    27    1
35    32    29    1
36    33    32    1
37    34    32    1
@<TRIPOS>SUBSTRUCTURE
1   LIG    1    
 
########## Name        : 1VRT.lig
########## Description : AM1BCC_CHARGES =  -0.0002 ORIGINAL_CHARGES =  -0.0000

@<TRIPOS>MOLECULE
1VRT.lig
34    37    1     0     0    
SMALL
USER_CHARGES
@<TRIPOS>ATOM
1     N1       4.0540  -36.9310   22.2210 N.ar    1  LIG  -0.6650  -0.6200 
2     C1       4.9660  -36.2380   22.9390 C.ar    1  LIG   0.3947   0.1600 
3     H1       6.0082  -36.2811   22.6707 H       1  LIG   0.0281   0.1500 
4     C2       4.6240  -35.4500   24.0360 C.ar    1  LIG  -0.2334  -0.1500 
5     H2       5.3884  -34.9151   24.5740 H       1  LIG   0.1480   0.1500 
6     C3       3.3050  -35.3690   24.4150 C.ar    1  LIG  -0.0698  -0.1435 
7     C4       2.3460  -36.0770   23.6860 C.ar    1  LIG  -0.0398   0.1170 
8     N2       0.9890  -36.0280   24.1030 N.am    1  LIG  -0.4596  -0.5470 
9     H3       0.7643  -35.9928   25.0860 H       1  LIG   0.3311   0.3700 
10    C5      -0.1450  -36.0180   23.4080 C.2     1  LIG   0.7361   0.5438 
11    C6      -0.1190  -36.0770   21.8860 C.ar    1  LIG  -0.2550   0.0862 
12    C7      -1.1230  -35.3990   21.1890 C.ar    1  LIG  -0.0321  -0.1500 
13    H4      -1.7552  -34.6955   21.7041 H       1  LIG   0.1623   0.1500 
14    C8      -1.2960  -35.6300   19.8690 C.ar    1  LIG  -0.2723  -0.1500 
15    H5      -2.0662  -35.1073   19.3273 H       1  LIG   0.1522   0.1500 
16    C9      -0.4670  -36.5450   19.2400 C.ar    1  LIG   0.4373   0.1600 
17    H6      -0.5947  -36.7554   18.1915 H       1  LIG   0.0280   0.1500 
18    N3       0.5220  -37.2120   19.8740 N.ar    1  LIG  -0.6893  -0.6200 
19    C10      0.7040  -36.9790   21.1800 C.ar    1  LIG   0.6480   0.4100 
20    N4       1.7670  -37.6730   21.8260 N.pl3   1  LIG  -0.6924  -0.3690 
21    C11      2.7540  -36.8570   22.5840 C.ar    1  LIG   0.5805   0.4100 
22    C12      2.9040  -34.5090   25.6010 C.3     1  LIG  -0.0620   0.1435 
23    H7       2.2235  -33.7630   25.2820 H       1  LIG   0.0570   0.0000 
24    H8       2.4436  -35.1154   26.3371 H       1  LIG   0.0495   0.0000 
25    H9       3.7654  -34.0491   26.0108 H       1  LIG   0.0519   0.0000 
26    O1      -1.2400  -35.9060   23.9770 O.2     1  LIG  -0.6361  -0.5700 
27    C13      2.3440  -38.7570   21.0360 C.3     1  LIG   0.1354   0.0690 
28    H10      3.1238  -38.3754   20.4296 H       1  LIG   0.0981   0.1000 
29    C14      2.9380  -39.8900   21.8010 C.3     1  LIG  -0.1181  -0.2000 
30    H11      3.8890  -40.1268   21.3997 H       1  LIG   0.0732   0.1000 
31    H12      3.0430  -39.6129   22.8177 H       1  LIG   0.0789   0.1000 
32    C15      1.6390  -40.0610   21.0880 C.3     1  LIG  -0.1196  -0.2000 
33    H13      0.6832  -39.9283   21.5242 H       1  LIG   0.0807   0.1000 
34    H14      1.5292  -40.4423   20.1061 H       1  LIG   0.0733   0.1000 
@<TRIPOS>BOND
1     2     1     ar
2     3     2     1
3     4     2     ar
4     5     4     1
5     6     4     ar
6     7     6     ar
7     8     7     1
8     9     8     1
9     10    8     1
10    11    10    1
11    12    11    ar
12    13    12    1
13    14    12    ar
14    15    14    1
15    16    14    ar
16    17    16    1
17    18    16    ar
18    19    11    ar
19    19    18    ar
20    20    19    1
21    21    1     ar
22    21    7     ar
23    21    20    1
24    22    6     1
25    23    22    1
26    24    22    1
27    25    22    1
28    26    10    2
29    27    20    1
30    28    27    1
31    29    27    1
32    30    29    1
33    31    29    1
34    32    27    1
35    32    29    1
36    33    32    1
37    34    32    1
@<TRIPOS>SUBSTRUCTURE
1   LIG    1    
 
########## Name        : 1VRT.lig
########## Description : AM1BCC_CHARGES =  -0.0002 ORIGINAL_CHARGES =  -0.0000

@<TRIPOS>MOLECULE
1VRT.lig
34    37    1     0     0    
SMALL
USER_CHARGES
@<TRIPOS>ATOM
1     N1       4.0540  -36.9310   22.2210 N.ar    1  LIG  -0.6650  -0.6200 
2     C1       4.9660  -36.2380   22.9390 C.ar    1  LIG   0.3947   0.1600 
3     H1       6.0082  -36.2811   22.6707 H       1  LIG   0.0281   0.1500 
4     C2       4.6240  -35.4500   24.0360 C.ar    1  LIG  -0.2334  -0.1500 
5     H2       5.3884  -34.9151   24.5740 H       1  LIG   0.1480   0.1500 
6     C3       3.3050  -35.3690   24.4150 C.ar    1  LIG  -0.0698  -0.1435 
7     C4       2.3460  -36.0770   23.6860 C.ar    1  LIG  -0.0398   0.1170 
8     N2       0.9890  -36.0280   24.1030 N.am    1  LIG  -0.4596  -0.5470 
9     H3       0.7643  -35.9928   25.0860 H       1  LIG   0.3311   0.3700 
10    C5      -0.1450  -36.0180   23.4080 C.2     1  LIG   0.7361   0.5438 
11    C6      -0.1190  -36.0770   21.8860 C.ar    1  LIG  -0.2550   0.0862 
12    C7      -1.1230  -35.3990   21.1890 C.ar    1  LIG  -0.0321  -0.1500 
13    H4      -1.7552  -34.6955   21.7041 H       1  LIG   0.1623   0.1500 
14    C8      -1.2960  -35.6300   19.8690 C.ar    1  LIG  -0.2723  -0.1500 
15    H5      -2.0662  -35.1073   19.3273 H       1  LIG   0.1522   0.1500 
16    C9      -0.4670  -36.5450   19.2400 C.ar    1  LIG   0.4373   0.1600 
17    H6      -0.5947  -36.7554   18.1915 H       1  LIG   0.0280   0.1500 
18    N3       0.5220  -37.2120   19.8740 N.ar    1  LIG  -0.6893  -0.6200 
19    C10      0.7040  -36.9790   21.1800 C.ar    1  LIG   0.6480   0.4100 
20    N4       1.7670  -37.6730   21.8260 N.pl3   1  LIG  -0.6924  -0.3690 
21    C11      2.7540  -36.8570   22.5840 C.ar    1  LIG   0.5805   0.4100 
22    C12      2.9040  -34.5090   25.6010 C.3     1  LIG  -0.0620   0.1435 
23    H7       2.2235  -33.7630   25.2820 H       1  LIG   0.0570   0.0000 
24    H8       2.4436  -35.1154   26.3371 H       1  LIG   0.0495   0.0000 
25    H9       3.7654  -34.0491   26.0108 H       1  LIG   0.0519   0.0000 
26    O1      -1.2400  -35.9060   23.9770 O.2     1  LIG  -0.6361  -0.5700 
27    C13      2.3440  -38.7570   21.0360 C.3     1  LIG   0.1354   0.0690 
28    H10      3.1238  -38.3754   20.4296 H       1  LIG   0.0981   0.1000 
29    C14      2.9380  -39.8900   21.8010 C.3     1  LIG  -0.1181  -0.2000 
30    H11      3.8890  -40.1268   21.3997 H       1  LIG   0.0732   0.1000 
31    H12      3.0430  -39.6129   22.8177 H       1  LIG   0.0789   0.1000 
32    C15      1.6390  -40.0610   21.0880 C.3     1  LIG  -0.1196  -0.2000 
33    H13      0.6832  -39.9283   21.5242 H       1  LIG   0.0807   0.1000 
34    H14      1.5292  -40.4423   20.1061 H       1  LIG   0.0733   0.1000 
@<TRIPOS>BOND
1     2     1     ar
2     3     2     1
3     4     2     ar
4     5     4     1
5     6     4     ar
6     7     6     ar
7     8     7     1
8     9     8     1
9     10    8     1
10    11    10    1
11    12    11    ar
12    13    12    1
13    14    12    ar
14    15    14    1
15    16    14    ar
16    17    16    1
17    18    16    ar
18    19    11    ar
19    19    18    ar
20    20    19    1
21    21    1     ar
22    21    7     ar
23    21    20    1
24    22    6     1
25    23    22    1
26    24    22    1
27    25    22    1
28    26    10    2
29    27    20    1
30    28    27    1
31    29    27    1
32    30    29    1
33    31    29    1
34    32    27    1
35    32    29    1
36    33    32    1
37    34    32    1
@<TRIPOS>SUBSTRUCTURE
1   LIG    1    
 
########## Name        : 1VRT.lig
########## Description : AM1BCC_CHARGES =  -0.0002 ORIGINAL_CHARGES =  -0.0000

@<TRIPOS>MOLECULE
1VRT.lig
34    37    1     0     0    
SMALL
USER_CHARGES
@<TRIPOS>ATOM
1     N1       4.0540  -36.9310   22.2210 N.ar    1  LIG  -0.6650  -0.6200 
2     C1       4.9660  -36.2380   22.9390 C.ar    1  LIG   0.3947   0.1600 
3     H1       6.0082  -36.2811   22.6707 H       1  LIG   0.0281   0.1500 
4     C2       4.6240  -35.4500   24.0360 C.ar    1  LIG  -0.2334  -0.1500 
5     H2       5.3884  -34.9151   24.5740 H       1  LIG   0.1480   0.1500 
6     C3       3.3050  -35.3690   24.4150 C.ar    1  LIG  -0.0698  -0.1435 
7     C4       2.3460  -36.0770   23.6860 C.ar    1  LIG  -0.0398   0.1170 
8     N2       0.9890  -36.0280   24.1030 N.am    1  LIG  -0.4596  -0.5470 
9     H3       0.7643  -35.9928   25.0860 H       1  LIG   0.3311   0.3700 
10    C5      -0.1450  -36.0180   23.4080 C.2     1  LIG   0.7361   0.5438 
11    C6      -0.1190  -36.0770   21.8860 C.ar    1  LIG  -0.2550   0.0862 
12    C7      -1.1230  -35.3990   21.1890 C.ar    1  LIG  -0.0321  -0.1500 
13    H4      -1.7552  -34.6955   21.7041 H       1  LIG   0.1623   0.1500 
14    C8      -1.2960  -35.6300   19.8690 C.ar    1  LIG  -0.2723  -0.1500 
15    H5      -2.0662  -35.1073   19.3273 H       1  LIG   0.1522   0.1500 
16    C9      -0.4670  -36.5450   19.2400 C.ar    1  LIG   0.4373   0.1600 
17    H6      -0.5947  -36.7554   18.1915 H       1  LIG   0.0280   0.1500 
18    N3       0.5220  -37.2120   19.8740 N.ar    1  LIG  -0.6893  -0.6200 
19    C10      0.7040  -36.9790   21.1800 C.ar    1  LIG   0.6480   0.4100 
20    N4       1.7670  -37.6730   21.8260 N.pl3   1  LIG  -0.6924  -0.3690 
21    C11      2.7540  -36.8570   22.5840 C.ar    1  LIG   0.5805   0.4100 
22    C12      2.9040  -34.5090   25.6010 C.3     1  LIG  -0.0620   0.1435 
23    H7       2.2235  -33.7630   25.2820 H       1  LIG   0.0570   0.0000 
24    H8       2.4436  -35.1154   26.3371 H       1  LIG   0.0495   0.0000 
25    H9       3.7654  -34.0491   26.0108 H       1  LIG   0.0519   0.0000 
26    O1      -1.2400  -35.9060   23.9770 O.2     1  LIG  -0.6361  -0.5700 
27    C13      2.3440  -38.7570   21.0360 C.3     1  LIG   0.1354   0.0690 
28    H10      3.1238  -38.3754   20.4296 H       1  LIG   0.0981   0.1000 
29    C14      2.9380  -39.8900   21.8010 C.3     1  LIG  -0.1181  -0.2000 
30    H11      3.8890  -40.1268   21.3997 H       1  LIG   0.0732   0.1000 
31    H12      3.0430  -39.6129   22.8177 H       1  LIG   0.0789   0.1000 
32    C15      1.6390  -40.0610   21.0880 C.3     1  LIG  -0.1196  -0.2000 
33    H13      0.6832  -39.9283   21.5242 H       1  LIG   0.0807   0.1000 
34    H14      1.5292  -40.4423   20.1061 H       1  LIG   0.0733   0.1000 
@<TRIPOS>BOND
1     2     1     ar
2     3     2     1
3     4     2     ar
4     5     4     1
5     6     4     ar
6     7     6     ar
7     8     7     1
8     9     8     1
9     10    8     1
10    11    10    1
11    12    11    ar
12    13    12    1
13    14    12    ar
14    15    14    1
15    16    14    ar
16    17    16    1
17    18    16    ar
18    19    11    ar
19    19    18    ar
20    20    19    1
21    21    1     ar
22    21    7     ar
23    21    20    1
24    22    6     1
25    23    22    1
26    24    22    1
27    25    22    1
28    26    10    2
29    27    20    1
30    28    27    1
31    29    27    1
32    30    29    1
33    31    29    1
34    32    27    1
35    32    29    1
36    33    32    1
37    34    32    1
@<TRIPOS>SUBSTRUCTURE
1   LIG    1    
 
########## Name        : 1VRT.lig
########## Description : AM1BCC_CHARGES =  -0.0002 ORIGINAL_CHARGES =  -0.0000

@<TRIPOS>MOLECULE
1VRT.lig
34    37    1     0     0    
SMALL
USER_CHARGES
@<TRIPOS>ATOM
1     N1       4.0540  -36.9310   22.2210 N.ar    1  LIG  -0.6650  -0.6200 
2     C1       4.9660  -36.2380   22.9390 C.ar    1  LIG   0.3947   0.1600 
3     H1       6.0082  -36.2811   22.6707 H       1  LIG   0.0281   0.1500 
4     C2       4.6240  -35.4500   24.0360 C.ar    1  LIG  -0.2334  -0.1500 
5     H2       5.3884  -34.9151   24.5740 H       1  LIG   0.1480   0.1500 
6     C3       3.3050  -35.3690   24.4150 C.ar    1  LIG  -0.0698  -0.1435 
7     C4       2.3460  -36.0770   23.6860 C.ar    1  LIG  -0.0398   0.1170 
8     N2       0.9890  -36.0280   24.1030 N.am    1  LIG  -0.4596  -0.5470 
9     H3       0.7643  -35.9928   25.0860 H       1  LIG   0.3311   0.3700 
10    C5      -0.1450  -36.0180   23.4080 C.2     1  LIG   0.7361   0.5438 
11    C6      -0.1190  -36.0770   21.8860 C.ar    1  LIG  -0.2550   0.0862 
12    C7      -1.1230  -35.3990   21.1890 C.ar    1  LIG  -0.0321  -0.1500 
13    H4      -1.7552  -34.6955   21.7041 H       1  LIG   0.1623   0.1500 
14    C8      -1.2960  -35.6300   19.8690 C.ar    1  LIG  -0.2723  -0.1500 
15    H5      -2.0662  -35.1073   19.3273 H       1  LIG   0.1522   0.1500 
16    C9      -0.4670  -36.5450   19.2400 C.ar    1  LIG   0.4373   0.1600 
17    H6      -0.5947  -36.7554   18.1915 H       1  LIG   0.0280   0.1500 
18    N3       0.5220  -37.2120   19.8740 N.ar    1  LIG  -0.6893  -0.6200 
19    C10      0.7040  -36.9790   21.1800 C.ar    1  LIG   0.6480   0.4100 
20    N4       1.7670  -37.6730   21.8260 N.pl3   1  LIG  -0.6924  -0.3690 
21    C11      2.7540  -36.8570   22.5840 C.ar    1  LIG   0.5805   0.4100 
22    C12      2.9040  -34.5090   25.6010 C.3     1  LIG  -0.0620   0.1435 
23    H7       2.2235  -33.7630   25.2820 H       1  LIG   0.0570   0.0000 
24    H8       2.4436  -35.1154   26.3371 H       1  LIG   0.0495   0.0000 
25    H9       3.7654  -34.0491   26.0108 H       1  LIG   0.0519   0.0000 
26    O1      -1.2400  -35.9060   23.9770 O.2     1  LIG  -0.6361  -0.5700 
27    C13      2.3440  -38.7570   21.0360 C.3     1  LIG   0.1354   0.0690 
28    H10      3.1238  -38.3754   20.4296 H       1  LIG   0.0981   0.1000 
29    C14      2.9380  -39.8900   21.8010 C.3     1  LIG  -0.1181  -0.2000 
30    H11      3.8890  -40.1268   21.3997 H       1  LIG   0.0732   0.1000 
31    H12      3.0430  -39.6129   22.8177 H       1  LIG   0.0789   0.1000 
32    C15      1.6390  -40.0610   21.0880 C.3     1  LIG  -0.1196  -0.2000 
33    H13      0.6832  -39.9283   21.5242 H       1  LIG   0.0807   0.1000 
34    H14      1.5292  -40.4423   20.1061 H       1  LIG   0.0733   0.1000 
@<TRIPOS>BOND
1     2     1     ar
2     3     2     1
3     4     2     ar
4     5     4     1
5     6     4     ar
6     7     6     ar
7     8     7     1
8     9     8     1
9     10    8     1
10    11    10    1
11    12    11    ar
12    13    12    1
13    14    12    ar
14    15    14    1
15    16    14    ar
16    17    16    1
17    18    16    ar
18    19    11    ar
19    19    18    ar
20    20    19    1
21    21    1     ar
22    21    7     ar
23    21    20    1
24    22    6     1
25    23    22    1
26    24    22    1
27    25    22    1
28    26    10    2
29    27    20    1
30    28    27    1
31    29    27    1
32    30    29    1
33    31    29    1
34    32    27    1
35    32    29    1
36    33    32    1
37    34    32    1
@<TRIPOS>SUBSTRUCTURE
1   LIG    1    
 
########## Name        : 1VRT.lig
########## Description : AM1BCC_CHARGES =  -0.0002 ORIGINAL_CHARGES =  -0.0000

@<TRIPOS>MOLECULE
1VRT.lig
34    37    1     0     0    
SMALL
USER_CHARGES
@<TRIPOS>ATOM
1     N1       4.0540  -36.9310   22.2210 N.ar    1  LIG  -0.6650  -0.6200 
2     C1       4.9660  -36.2380   22.9390 C.ar    1  LIG   0.3947   0.1600 
3     H1       6.0082  -36.2811   22.6707 H       1  LIG   0.0281   0.1500 
4     C2       4.6240  -35.4500   24.0360 C.ar    1  LIG  -0.2334  -0.1500 
5     H2       5.3884  -34.9151   24.5740 H       1  LIG   0.1480   0.1500 
6     C3       3.3050  -35.3690   24.4150 C.ar    1  LIG  -0.0698  -0.1435 
7     C4       2.3460  -36.0770   23.6860 C.ar    1  LIG  -0.0398   0.1170 
8     N2       0.9890  -36.0280   24.1030 N.am    1  LIG  -0.4596  -0.5470 
9     H3       0.7643  -35.9928   25.0860 H       1  LIG   0.3311   0.3700 
10    C5      -0.1450  -36.0180   23.4080 C.2     1  LIG   0.7361   0.5438 
11    C6      -0.1190  -36.0770   21.8860 C.ar    1  LIG  -0.2550   0.0862 
12    C7      -1.1230  -35.3990   21.1890 C.ar    1  LIG  -0.0321  -0.1500 
13    H4      -1.7552  -34.6955   21.7041 H       1  LIG   0.1623   0.1500 
14    C8      -1.2960  -35.6300   19.8690 C.ar    1  LIG  -0.2723  -0.1500 
15    H5      -2.0662  -35.1073   19.3273 H       1  LIG   0.1522   0.1500 
16    C9      -0.4670  -36.5450   19.2400 C.ar    1  LIG   0.4373   0.1600 
17    H6      -0.5947  -36.7554   18.1915 H       1  LIG   0.0280   0.1500 
18    N3       0.5220  -37.2120   19.8740 N.ar    1  LIG  -0.6893  -0.6200 
19    C10      0.7040  -36.9790   21.1800 C.ar    1  LIG   0.6480   0.4100 
20    N4       1.7670  -37.6730   21.8260 N.pl3   1  LIG  -0.6924  -0.3690 
21    C11      2.7540  -36.8570   22.5840 C.ar    1  LIG   0.5805   0.4100 
22    C12      2.9040  -34.5090   25.6010 C.3     1  LIG  -0.0620   0.1435 
23    H7       2.2235  -33.7630   25.2820 H       1  LIG   0.0570   0.0000 
24    H8       2.4436  -35.1154   26.3371 H       1  LIG   0.0495   0.0000 
25    H9       3.7654  -34.0491   26.0108 H       1  LIG   0.0519   0.0000 
26    O1      -1.2400  -35.9060   23.9770 O.2     1  LIG  -0.6361  -0.5700 
27    C13      2.3440  -38.7570   21.0360 C.3     1  LIG   0.1354   0.0690 
28    H10      3.1238  -38.3754   20.4296 H       1  LIG   0.0981   0.1000 
29    C14      2.9380  -39.8900   21.8010 C.3     1  LIG  -0.1181  -0.2000 
30    H11      3.8890  -40.1268   21.3997 H       1  LIG   0.0732   0.1000 
31    H12      3.0430  -39.6129   22.8177 H       1  LIG   0.0789   0.1000 
32    C15      1.6390  -40.0610   21.0880 C.3     1  LIG  -0.1196  -0.2000 
33    H13      0.6832  -39.9283   21.5242 H       1  LIG   0.0807   0.1000 
34    H14      1.5292  -40.4423   20.1061 H       1  LIG   0.0733   0.1000 
@<TRIPOS>BOND
1     2     1     ar
2     3     2     1
3     4     2     ar
4     5     4     1
5     6     4     ar
6     7     6     ar
7     8     7     1
8     9     8     1
9     10    8     1
10    11    10    1
11    12    11    ar
12    13    12    1
13    14    12    ar
14    15    14    1
15    16    14    ar
16    17    16    1
17    18    16    ar
18    19    11    ar
19    19    18    ar
20    20    19    1
21    21    1     ar
22    21    7     ar
23    21    20    1
24    22    6     1
25    23    22    1
26    24    22    1
27    25    22    1
28    26    10    2
29    27    20    1
30    28    27    1
31    29    27    1
32    30    29    1
33    31    29    1
34    32    27    1
35    32    29    1
36    33    32    1
37    34    32    1
@<TRIPOS>SUBSTRUCTURE
1   LIG    1    
 
########## Name        : 1VRT.lig
########## Description : AM1BCC_CHARGES =  -0.0002 ORIGINAL_CHARGES =  -0.0000

@<TRIPOS>MOLECULE
1VRT.lig
34    37    1     0     0    
SMALL
USER_CHARGES
@<TRIPOS>ATOM
1     N1       4.0540  -36.9310   22.2210 N.ar    1  LIG  -0.6650  -0.6200 
2     C1       4.9660  -36.2380   22.9390 C.ar    1  LIG   0.3947   0.1600 
3     H1       6.0082  -36.2811   22.6707 H       1  LIG   0.0281   0.1500 
4     C2       4.6240  -35.4500   24.0360 C.ar    1  LIG  -0.2334  -0.1500 
5     H2       5.3884  -34.9151   24.5740 H       1  LIG   0.1480   0.1500 
6     C3       3.3050  -35.3690   24.4150 C.ar    1  LIG  -0.0698  -0.1435 
7     C4       2.3460  -36.0770   23.6860 C.ar    1  LIG  -0.0398   0.1170 
8     N2       0.9890  -36.0280   24.1030 N.am    1  LIG  -0.4596  -0.5470 
9     H3       0.7643  -35.9928   25.0860 H       1  LIG   0.3311   0.3700 
10    C5      -0.1450  -36.0180   23.4080 C.2     1  LIG   0.7361   0.5438 
11    C6      -0.1190  -36.0770   21.8860 C.ar    1  LIG  -0.2550   0.0862 
12    C7      -1.1230  -35.3990   21.1890 C.ar    1  LIG  -0.0321  -0.1500 
13    H4      -1.7552  -34.6955   21.7041 H       1  LIG   0.1623   0.1500 
14    C8      -1.2960  -35.6300   19.8690 C.ar    1  LIG  -0.2723  -0.1500 
15    H5      -2.0662  -35.1073   19.3273 H       1  LIG   0.1522   0.1500 
16    C9      -0.4670  -36.5450   19.2400 C.ar    1  LIG   0.4373   0.1600 
17    H6      -0.5947  -36.7554   18.1915 H       1  LIG   0.0280   0.1500 
18    N3       0.5220  -37.2120   19.8740 N.ar    1  LIG  -0.6893  -0.6200 
19    C10      0.7040  -36.9790   21.1800 C.ar    1  LIG   0.6480   0.4100 
20    N4       1.7670  -37.6730   21.8260 N.pl3   1  LIG  -0.6924  -0.3690 
21    C11      2.7540  -36.8570   22.5840 C.ar    1  LIG   0.5805   0.4100 
22    C12      2.9040  -34.5090   25.6010 C.3     1  LIG  -0.0620   0.1435 
23    H7       2.2235  -33.7630   25.2820 H       1  LIG   0.0570   0.0000 
24    H8       2.4436  -35.1154   26.3371 H       1  LIG   0.0495   0.0000 
25    H9       3.7654  -34.0491   26.0108 H       1  LIG   0.0519   0.0000 
26    O1      -1.2400  -35.9060   23.9770 O.2     1  LIG  -0.6361  -0.5700 
27    C13      2.3440  -38.7570   21.0360 C.3     1  LIG   0.1354   0.0690 
28    H10      3.1238  -38.3754   20.4296 H       1  LIG   0.0981   0.1000 
29    C14      2.9380  -39.8900   21.8010 C.3     1  LIG  -0.1181  -0.2000 
30    H11      3.8890  -40.1268   21.3997 H       1  LIG   0.0732   0.1000 
31    H12      3.0430  -39.6129   22.8177 H       1  LIG   0.0789   0.1000 
32    C15      1.6390  -40.0610   21.0880 C.3     1  LIG  -0.1196  -0.2000 
33    H13      0.6832  -39.9283   21.5242 H       1  LIG   0.0807   0.1000 
34    H14      1.5292  -40.4423   20.1061 H       1  LIG   0.0733   0.1000 
@<TRIPOS>BOND
1     2     1     ar
2     3     2     1
3     4     2     ar
4     5     4     1
5     6     4     ar
6     7     6     ar
7     8     7     1
8     9     8     1
9     10    8     1
10    11    10    1
11    12    11    ar
12    13    12    1
13    14    12    ar
14    15    14    1
15    16    14    ar
16    17    16    1
17    18    16    ar
18    19    11    ar
19    19    18    ar
20    20    19    1
21    21    1     ar
22    21    7     ar
23    21    20    1
24    22    6     1
25    23    22    1
26    24    22    1
27    25    22    1
28    26    10    2
29    27    20    1
30    28    27    1
31    29    27    1
32    30    29    1
33    31    29    1
34    32    27    1
35    32    29    1
36    33    32    1
37    34    32    1
@<TRIPOS>SUBSTRUCTURE
1   LIG    1    
 
########## Name        : 1VRT.lig
########## Description : AM1BCC_CHARGES =  -0.0002 ORIGINAL_CHARGES =  -0.0000

@<TRIPOS>MOLECULE
1VRT.lig
34    37    1     0     0    
SMALL
USER_CHARGES
@<TRIPOS>ATOM
1     N1       4.0540  -36.9310   22.2210 N.ar    1  LIG  -0.6650  -0.6200 
2     C1       4.9660  -36.2380   22.9390 C.ar    1  LIG   0.3947   0.1600 
3     H1       6.0082  -36.2811   22.6707 H       1  LIG   0.0281   0.1500 
4     C2       4.6240  -35.4500   24.0360 C.ar    1  LIG  -0.2334  -0.1500 
5     H2       5.3884  -34.9151   24.5740 H       1  LIG   0.1480   0.1500 
6     C3       3.3050  -35.3690   24.4150 C.ar    1  LIG  -0.0698  -0.1435 
7     C4       2.3460  -36.0770   23.6860 C.ar    1  LIG  -0.0398   0.1170 
8     N2       0.9890  -36.0280   24.1030 N.am    1  LIG  -0.4596  -0.5470 
9     H3       0.7643  -35.9928   25.0860 H       1  LIG   0.3311   0.3700 
10    C5      -0.1450  -36.0180   23.4080 C.2     1  LIG   0.7361   0.5438 
11    C6      -0.1190  -36.0770   21.8860 C.ar    1  LIG  -0.2550   0.0862 
12    C7      -1.1230  -35.3990   21.1890 C.ar    1  LIG  -0.0321  -0.1500 
13    H4      -1.7552  -34.6955   21.7041 H       1  LIG   0.1623   0.1500 
14    C8      -1.2960  -35.6300   19.8690 C.ar    1  LIG  -0.2723  -0.1500 
15    H5      -2.0662  -35.1073   19.3273 H       1  LIG   0.1522   0.1500 
16    C9      -0.4670  -36.5450   19.2400 C.ar    1  LIG   0.4373   0.1600 
17    H6      -0.5947  -36.7554   18.1915 H       1  LIG   0.0280   0.1500 
18    N3       0.5220  -37.2120   19.8740 N.ar    1  LIG  -0.6893  -0.6200 
19    C10      0.7040  -36.9790   21.1800 C.ar    1  LIG   0.6480   0.4100 
20    N4       1.7670  -37.6730   21.8260 N.pl3   1  LIG  -0.6924  -0.3690 
21    C11      2.7540  -36.8570   22.5840 C.ar    1  LIG   0.5805   0.4100 
22    C12      2.9040  -34.5090   25.6010 C.3     1  LIG  -0.0620   0.1435 
23    H7       2.2235  -33.7630   25.2820 H       1  LIG   0.0570   0.0000 
24    H8       2.4436  -35.1154   26.3371 H       1  LIG   0.0495   0.0000 
25    H9       3.7654  -34.0491   26.0108 H       1  LIG   0.0519   0.0000 
26    O1      -1.2400  -35.9060   23.9770 O.2     1  LIG  -0.6361  -0.5700 
27    C13      2.3440  -38.7570   21.0360 C.3     1  LIG   0.1354   0.0690 
28    H10      3.1238  -38.3754   20.4296 H       1  LIG   0.0981   0.1000 
29    C14      2.9380  -39.8900   21.8010 C.3     1  LIG  -0.1181  -0.2000 
30    H11      3.8890  -40.1268   21.3997 H       1  LIG   0.0732   0.1000 
31    H12      3.0430  -39.6129   22.8177 H       1  LIG   0.0789   0.1000 
32    C15      1.6390  -40.0610   21.0880 C.3     1  LIG  -0.1196  -0.2000 
33    H13      0.6832  -39.9283   21.5242 H       1  LIG   0.0807   0.1000 
34    H14      1.5292  -40.4423   20.1061 H       1  LIG   0.0733   0.1000 
@<TRIPOS>BOND
1     2     1     ar
2     3     2     1
3     4     2     ar
4     5     4     1
5     6     4     ar
6     7     6     ar
7     8     7     1
8     9     8     1
9     10    8     1
10    11    10    1
11    12    11    ar
12    13    12    1
13    14    12    ar
14    15    14    1
15    16    14    ar
16    17    16    1
17    18    16    ar
18    19    11    ar
19    19    18    ar
20    20    19    1
21    21    1     ar
22    21    7     ar
23    21    20    1
24    22    6     1
25    23    22    1
26    24    22    1
27    25    22    1
28    26    10    2
29    27    20    1
30    28    27    1
31    29    27    1
32    30    29    1
33    31    29    1
34    32    27    1
35    32    29    1
36    33    32    1
37    34    32    1
@<TRIPOS>SUBSTRUCTURE
1   LIG    1    
 
########## Name        : 1VRT.lig
########## Description : AM1BCC_CHARGES =  -0.0002 ORIGINAL_CHARGES =  -0.0000

@<TRIPOS>MOLECULE
1VRT.lig
34    37    1     0     0    
SMALL
USER_CHARGES
@<TRIPOS>ATOM
1     N1       4.0540  -36.9310   22.2210 N.ar    1  LIG  -0.6650  -0.6200 
2     C1       4.9660  -36.2380   22.9390 C.ar    1  LIG   0.3947   0.1600 
3     H1       6.0082  -36.2811   22.6707 H       1  LIG   0.0281   0.1500 
4     C2       4.6240  -35.4500   24.0360 C.ar    1  LIG  -0.2334  -0.1500 
5     H2       5.3884  -34.9151   24.5740 H       1  LIG   0.1480   0.1500 
6     C3       3.3050  -35.3690   24.4150 C.ar    1  LIG  -0.0698  -0.1435 
7     C4       2.3460  -36.0770   23.6860 C.ar    1  LIG  -0.0398   0.1170 
8     N2       0.9890  -36.0280   24.1030 N.am    1  LIG  -0.4596  -0.5470 
9     H3       0.7643  -35.9928   25.0860 H       1  LIG   0.3311   0.3700 
10    C5      -0.1450  -36.0180   23.4080 C.2     1  LIG   0.7361   0.5438 
11    C6      -0.1190  -36.0770   21.8860 C.ar    1  LIG  -0.2550   0.0862 
12    C7      -1.1230  -35.3990   21.1890 C.ar    1  LIG  -0.0321  -0.1500 
13    H4      -1.7552  -34.6955   21.7041 H       1  LIG   0.1623   0.1500 
14    C8      -1.2960  -35.6300   19.8690 C.ar    1  LIG  -0.2723  -0.1500 
15    H5      -2.0662  -35.1073   19.3273 H       1  LIG   0.1522   0.1500 
16    C9      -0.4670  -36.5450   19.2400 C.ar    1  LIG   0.4373   0.1600 
17    H6      -0.5947  -36.7554   18.1915 H       1  LIG   0.0280   0.1500 
18    N3       0.5220  -37.2120   19.8740 N.ar    1  LIG  -0.6893  -0.6200 
19    C10      0.7040  -36.9790   21.1800 C.ar    1  LIG   0.6480   0.4100 
20    N4       1.7670  -37.6730   21.8260 N.pl3   1  LIG  -0.6924  -0.3690 
21    C11      2.7540  -36.8570   22.5840 C.ar    1  LIG   0.5805   0.4100 
22    C12      2.9040  -34.5090   25.6010 C.3     1  LIG  -0.0620   0.1435 
23    H7       2.2235  -33.7630   25.2820 H       1  LIG   0.0570   0.0000 
24    H8       2.4436  -35.1154   26.3371 H       1  LIG   0.0495   0.0000 
25    H9       3.7654  -34.0491   26.0108 H       1  LIG   0.0519   0.0000 
26    O1      -1.2400  -35.9060   23.9770 O.2     1  LIG  -0.6361  -0.5700 
27    C13      2.3440  -38.7570   21.0360 C.3     1  LIG   0.1354   0.0690 
28    H10      3.1238  -38.3754   20.4296 H       1  LIG   0.0981   0.1000 
29    C14      2.9380  -39.8900   21.8010 C.3     1  LIG  -0.1181  -0.2000 
30    H11      3.8890  -40.1268   21.3997 H       1  LIG   0.0732   0.1000 
31    H12      3.0430  -39.6129   22.8177 H       1  LIG   0.0789   0.1000 
32    C15      1.6390  -40.0610   21.0880 C.3     1  LIG  -0.1196  -0.2000 
33    H13      0.6832  -39.9283   21.5242 H       1  LIG   0.0807   0.1000 
34    H14      1.5292  -40.4423   20.1061 H       1  LIG   0.0733   0.1000 
@<TRIPOS>BOND
1     2     1     ar
2     3     2     1
3     4     2     ar
4     5     4     1
5     6     4     ar
6     7     6     ar
7     8     7     1
8     9     8     1
9     10    8     1
10    11    10    1
11    12    11    ar
12    13    12    1
13    14    12    ar
14    15    14    1
15    16    14    ar
16    17    16    1
17    18    16    ar
18    19    11    ar
19    19    18    ar
20    20    19    1
21    21    1     ar
22    21    7     ar
23    21    20    1
24    22    6     1
25    23    22    1
26    24    22    1
27    25    22    1
28    26    10    2
29    27    20    1
30    28    27    1
31    29    27    1
32    30    29    1
33    31    29    1
34    32    27    1
35    32    29    1
36    33    32    1
37    34    32    1
@<TRIPOS>SUBSTRUCTURE
1   LIG    1    
 
########## Name        : 1VRT.lig
########## Description : AM1BCC_CHARGES =  -0.0002 ORIGINAL_CHARGES =  -0.0000

@<TRIPOS>MOLECULE
1VRT.lig
34    37    1     0     0    
SMALL
USER_CHARGES
@<TRIPOS>ATOM
1     N1       4.0540  -36.9310   22.2210 N.ar    1  LIG  -0.6650  -0.6200 
2     C1       4.9660  -36.2380   22.9390 C.ar    1  LIG   0.3947   0.1600 
3     H1       6.0082  -36.2811   22.6707 H       1  LIG   0.0281   0.1500 
4     C2       4.6240  -35.4500   24.0360 C.ar    1  LIG  -0.2334  -0.1500 
5     H2       5.3884  -34.9151   24.5740 H       1  LIG   0.1480   0.1500 
6     C3       3.3050  -35.3690   24.4150 C.ar    1  LIG  -0.0698  -0.1435 
7     C4       2.3460  -36.0770   23.6860 C.ar    1  LIG  -0.0398   0.1170 
8     N2       0.9890  -36.0280   24.1030 N.am    1  LIG  -0.4596  -0.5470 
9     H3       0.7643  -35.9928   25.0860 H       1  LIG   0.3311   0.3700 
10    C5      -0.1450  -36.0180   23.4080 C.2     1  LIG   0.7361   0.5438 
11    C6      -0.1190  -36.0770   21.8860 C.ar    1  LIG  -0.2550   0.0862 
12    C7      -1.1230  -35.3990   21.1890 C.ar    1  LIG  -0.0321  -0.1500 
13    H4      -1.7552  -34.6955   21.7041 H       1  LIG   0.1623   0.1500 
14    C8      -1.2960  -35.6300   19.8690 C.ar    1  LIG  -0.2723  -0.1500 
15    H5      -2.0662  -35.1073   19.3273 H       1  LIG   0.1522   0.1500 
16    C9      -0.4670  -36.5450   19.2400 C.ar    1  LIG   0.4373   0.1600 
17    H6      -0.5947  -36.7554   18.1915 H       1  LIG   0.0280   0.1500 
18    N3       0.5220  -37.2120   19.8740 N.ar    1  LIG  -0.6893  -0.6200 
19    C10      0.7040  -36.9790   21.1800 C.ar    1  LIG   0.6480   0.4100 
20    N4       1.7670  -37.6730   21.8260 N.pl3   1  LIG  -0.6924  -0.3690 
21    C11      2.7540  -36.8570   22.5840 C.ar    1  LIG   0.5805   0.4100 
22    C12      2.9040  -34.5090   25.6010 C.3     1  LIG  -0.0620   0.1435 
23    H7       2.2235  -33.7630   25.2820 H       1  LIG   0.0570   0.0000 
24    H8       2.4436  -35.1154   26.3371 H       1  LIG   0.0495   0.0000 
25    H9       3.7654  -34.0491   26.0108 H       1  LIG   0.0519   0.0000 
26    O1      -1.2400  -35.9060   23.9770 O.2     1  LIG  -0.6361  -0.5700 
27    C13      2.3440  -38.7570   21.0360 C.3     1  LIG   0.1354   0.0690 
28    H10      3.1238  -38.3754   20.4296 H       1  LIG   0.0981   0.1000 
29    C14      2.9380  -39.8900   21.8010 C.3     1  LIG  -0.1181  -0.2000 
30    H11      3.8890  -40.1268   21.3997 H       1  LIG   0.0732   0.1000 
31    H12      3.0430  -39.6129   22.8177 H       1  LIG   0.0789   0.1000 
32    C15      1.6390  -40.0610   21.0880 C.3     1  LIG  -0.1196  -0.2000 
33    H13      0.6832  -39.9283   21.5242 H       1  LIG   0.0807   0.1000 
34    H14      1.5292  -40.4423   20.1061 H       1  LIG   0.0733   0.1000 
@<TRIPOS>BOND
1     2     1     ar
2     3     2     1
3     4     2     ar
4     5     4     1
5     6     4     ar
6     7     6     ar
7     8     7     1
8     9     8     1
9     10    8     1
10    11    10    1
11    12    11    ar
12    13    12    1
13    14    12    ar
14    15    14    1
15    16    14    ar
16    17    16    1
17    18    16    ar
18    19    11    ar
19    19    18    ar
20    20    19    1
21    21    1     ar
22    21    7     ar
23    21    20    1
24    22    6     1
25    23    22    1
26    24    22    1
27    25    22    1
28    26    10    2
29    27    20    1
30    28    27    1
31    29    27    1
32    30    29    1
33    31    29    1
34    32    27    1
35    32    29    1
36    33    32    1
37    34    32    1
@<TRIPOS>SUBSTRUCTURE
1   LIG    1    
 
########## Name        : 1VRT.lig
########## Description : AM1BCC_CHARGES =  -0.0002 ORIGINAL_CHARGES =  -0.0000

@<TRIPOS>MOLECULE
1VRT.lig
34    37    1     0     0    
SMALL
USER_CHARGES
@<TRIPOS>ATOM
1     N1       4.0540  -36.9310   22.2210 N.ar    1  LIG  -0.6650  -0.6200 
2     C1       4.9660  -36.2380   22.9390 C.ar    1  LIG   0.3947   0.1600 
3     H1       6.0082  -36.2811   22.6707 H       1  LIG   0.0281   0.1500 
4     C2       4.6240  -35.4500   24.0360 C.ar    1  LIG  -0.2334  -0.1500 
5     H2       5.3884  -34.9151   24.5740 H       1  LIG   0.1480   0.1500 
6     C3       3.3050  -35.3690   24.4150 C.ar    1  LIG  -0.0698  -0.1435 
7     C4       2.3460  -36.0770   23.6860 C.ar    1  LIG  -0.0398   0.1170 
8     N2       0.9890  -36.0280   24.1030 N.am    1  LIG  -0.4596  -0.5470 
9     H3       0.7643  -35.9928   25.0860 H       1  LIG   0.3311   0.3700 
10    C5      -0.1450  -36.0180   23.4080 C.2     1  LIG   0.7361   0.5438 
11    C6      -0.1190  -36.0770   21.8860 C.ar    1  LIG  -0.2550   0.0862 
12    C7      -1.1230  -35.3990   21.1890 C.ar    1  LIG  -0.0321  -0.1500 
13    H4      -1.7552  -34.6955   21.7041 H       1  LIG   0.1623   0.1500 
14    C8      -1.2960  -35.6300   19.8690 C.ar    1  LIG  -0.2723  -0.1500 
15    H5      -2.0662  -35.1073   19.3273 H       1  LIG   0.1522   0.1500 
16    C9      -0.4670  -36.5450   19.2400 C.ar    1  LIG   0.4373   0.1600 
17    H6      -0.5947  -36.7554   18.1915 H       1  LIG   0.0280   0.1500 
18    N3       0.5220  -37.2120   19.8740 N.ar    1  LIG  -0.6893  -0.6200 
19    C10      0.7040  -36.9790   21.1800 C.ar    1  LIG   0.6480   0.4100 
20    N4       1.7670  -37.6730   21.8260 N.pl3   1  LIG  -0.6924  -0.3690 
21    C11      2.7540  -36.8570   22.5840 C.ar    1  LIG   0.5805   0.4100 
22    C12      2.9040  -34.5090   25.6010 C.3     1  LIG  -0.0620   0.1435 
23    H7       2.2235  -33.7630   25.2820 H       1  LIG   0.0570   0.0000 
24    H8       2.4436  -35.1154   26.3371 H       1  LIG   0.0495   0.0000 
25    H9       3.7654  -34.0491   26.0108 H       1  LIG   0.0519   0.0000 
26    O1      -1.2400  -35.9060   23.9770 O.2     1  LIG  -0.6361  -0.5700 
27    C13      2.3440  -38.7570   21.0360 C.3     1  LIG   0.1354   0.0690 
28    H10      3.1238  -38.3754   20.4296 H       1  LIG   0.0981   0.1000 
29    C14      2.9380  -39.8900   21.8010 C.3     1  LIG  -0.1181  -0.2000 
30    H11      3.8890  -40.1268   21.3997 H       1  LIG   0.0732   0.1000 
31    H12      3.0430  -39.6129   22.8177 H       1  LIG   0.0789   0.1000 
32    C15      1.6390  -40.0610   21.0880 C.3     1  LIG  -0.1196  -0.2000 
33    H13      0.6832  -39.9283   21.5242 H       1  LIG   0.0807   0.1000 
34    H14      1.5292  -40.4423   20.1061 H       1  LIG   0.0733   0.1000 
@<TRIPOS>BOND
1     2     1     ar
2     3     2     1
3     4     2     ar
4     5     4     1
5     6     4     ar
6     7     6     ar
7     8     7     1
8     9     8     1
9     10    8     1
10    11    10    1
11    12    11    ar
12    13    12    1
13    14    12    ar
14    15    14    1
15    16    14    ar
16    17    16    1
17    18    16    ar
18    19    11    ar
19    19    18    ar
20    20    19    1
21    21    1     ar
22    21    7     ar
23    21    20    1
24    22    6     1
25    23    22    1
26    24    22    1
27    25    22    1
28    26    10    2
29    27    20    1
30    28    27    1
31    29    27    1
32    30    29    1
33    31    29    1
34    32    27    1
35    32    29    1
36    33    32    1
37    34    32    1
@<TRIPOS>SUBSTRUCTURE
1   LIG    1    
 
########## Name        : 1VRT.lig
########## Description : AM1BCC_CHARGES =  -0.0002 ORIGINAL_CHARGES =  -0.0000

@<TRIPOS>MOLECULE
1VRT.lig
34    37    1     0     0    
SMALL
USER_CHARGES
@<TRIPOS>ATOM
1     N1       4.0540  -36.9310   22.2210 N.ar    1  LIG  -0.6650  -0.6200 
2     C1       4.9660  -36.2380   22.9390 C.ar    1  LIG   0.3947   0.1600 
3     H1       6.0082  -36.2811   22.6707 H       1  LIG   0.0281   0.1500 
4     C2       4.6240  -35.4500   24.0360 C.ar    1  LIG  -0.2334  -0.1500 
5     H2       5.3884  -34.9151   24.5740 H       1  LIG   0.1480   0.1500 
6     C3       3.3050  -35.3690   24.4150 C.ar    1  LIG  -0.0698  -0.1435 
7     C4       2.3460  -36.0770   23.6860 C.ar    1  LIG  -0.0398   0.1170 
8     N2       0.9890  -36.0280   24.1030 N.am    1  LIG  -0.4596  -0.5470 
9     H3       0.7643  -35.9928   25.0860 H       1  LIG   0.3311   0.3700 
10    C5      -0.1450  -36.0180   23.4080 C.2     1  LIG   0.7361   0.5438 
11    C6      -0.1190  -36.0770   21.8860 C.ar    1  LIG  -0.2550   0.0862 
12    C7      -1.1230  -35.3990   21.1890 C.ar    1  LIG  -0.0321  -0.1500 
13    H4      -1.7552  -34.6955   21.7041 H       1  LIG   0.1623   0.1500 
14    C8      -1.2960  -35.6300   19.8690 C.ar    1  LIG  -0.2723  -0.1500 
15    H5      -2.0662  -35.1073   19.3273 H       1  LIG   0.1522   0.1500 
16    C9      -0.4670  -36.5450   19.2400 C.ar    1  LIG   0.4373   0.1600 
17    H6      -0.5947  -36.7554   18.1915 H       1  LIG   0.0280   0.1500 
18    N3       0.5220  -37.2120   19.8740 N.ar    1  LIG  -0.6893  -0.6200 
19    C10      0.7040  -36.9790   21.1800 C.ar    1  LIG   0.6480   0.4100 
20    N4       1.7670  -37.6730   21.8260 N.pl3   1  LIG  -0.6924  -0.3690 
21    C11      2.7540  -36.8570   22.5840 C.ar    1  LIG   0.5805   0.4100 
22    C12      2.9040  -34.5090   25.6010 C.3     1  LIG  -0.0620   0.1435 
23    H7       2.2235  -33.7630   25.2820 H       1  LIG   0.0570   0.0000 
24    H8       2.4436  -35.1154   26.3371 H       1  LIG   0.0495   0.0000 
25    H9       3.7654  -34.0491   26.0108 H       1  LIG   0.0519   0.0000 
26    O1      -1.2400  -35.9060   23.9770 O.2     1  LIG  -0.6361  -0.5700 
27    C13      2.3440  -38.7570   21.0360 C.3     1  LIG   0.1354   0.0690 
28    H10      3.1238  -38.3754   20.4296 H       1  LIG   0.0981   0.1000 
29    C14      2.9380  -39.8900   21.8010 C.3     1  LIG  -0.1181  -0.2000 
30    H11      3.8890  -40.1268   21.3997 H       1  LIG   0.0732   0.1000 
31    H12      3.0430  -39.6129   22.8177 H       1  LIG   0.0789   0.1000 
32    C15      1.6390  -40.0610   21.0880 C.3     1  LIG  -0.1196  -0.2000 
33    H13      0.6832  -39.9283   21.5242 H       1  LIG   0.0807   0.1000 
34    H14      1.5292  -40.4423   20.1061 H       1  LIG   0.0733   0.1000 
@<TRIPOS>BOND
1     2     1     ar
2     3     2     1
3     4     2     ar
4     5     4     1
5     6     4     ar
6     7     6     ar
7     8     7     1
8     9     8     1
9     10    8     1
10    11    10    1
11    12    11    ar
12    13    12    1
13    14    12    ar
14    15    14    1
15    16    14    ar
16    17    16    1
17    18    16    ar
18    19    11    ar
19    19    18    ar
20    20    19    1
21    21    1     ar
22    21    7     ar
23    21    20    1
24    22    6     1
25    23    22    1
26    24    22    1
27    25    22    1
28    26    10    2
29    27    20    1
30    28    27    1
31    29    27    1
32    30    29    1
33    31    29    1
34    32    27    1
35    32    29    1
36    33    32    1
37    34    32    1
@<TRIPOS>SUBSTRUCTURE
1   LIG    1    
 
########## Name        : 1VRT.lig
########## Description : AM1BCC_CHARGES =  -0.0002 ORIGINAL_CHARGES =  -0.0000

@<TRIPOS>MOLECULE
1VRT.lig
34    37    1     0     0    
SMALL
USER_CHARGES
@<TRIPOS>ATOM
1     N1       4.0540  -36.9310   22.2210 N.ar    1  LIG  -0.6650  -0.6200 
2     C1       4.9660  -36.2380   22.9390 C.ar    1  LIG   0.3947   0.1600 
3     H1       6.0082  -36.2811   22.6707 H       1  LIG   0.0281   0.1500 
4     C2       4.6240  -35.4500   24.0360 C.ar    1  LIG  -0.2334  -0.1500 
5     H2       5.3884  -34.9151   24.5740 H       1  LIG   0.1480   0.1500 
6     C3       3.3050  -35.3690   24.4150 C.ar    1  LIG  -0.0698  -0.1435 
7     C4       2.3460  -36.0770   23.6860 C.ar    1  LIG  -0.0398   0.1170 
8     N2       0.9890  -36.0280   24.1030 N.am    1  LIG  -0.4596  -0.5470 
9     H3       0.7643  -35.9928   25.0860 H       1  LIG   0.3311   0.3700 
10    C5      -0.1450  -36.0180   23.4080 C.2     1  LIG   0.7361   0.5438 
11    C6      -0.1190  -36.0770   21.8860 C.ar    1  LIG  -0.2550   0.0862 
12    C7      -1.1230  -35.3990   21.1890 C.ar    1  LIG  -0.0321  -0.1500 
13    H4      -1.7552  -34.6955   21.7041 H       1  LIG   0.1623   0.1500 
14    C8      -1.2960  -35.6300   19.8690 C.ar    1  LIG  -0.2723  -0.1500 
15    H5      -2.0662  -35.1073   19.3273 H       1  LIG   0.1522   0.1500 
16    C9      -0.4670  -36.5450   19.2400 C.ar    1  LIG   0.4373   0.1600 
17    H6      -0.5947  -36.7554   18.1915 H       1  LIG   0.0280   0.1500 
18    N3       0.5220  -37.2120   19.8740 N.ar    1  LIG  -0.6893  -0.6200 
19    C10      0.7040  -36.9790   21.1800 C.ar    1  LIG   0.6480   0.4100 
20    N4       1.7670  -37.6730   21.8260 N.pl3   1  LIG  -0.6924  -0.3690 
21    C11      2.7540  -36.8570   22.5840 C.ar    1  LIG   0.5805   0.4100 
22    C12      2.9040  -34.5090   25.6010 C.3     1  LIG  -0.0620   0.1435 
23    H7       2.2235  -33.7630   25.2820 H       1  LIG   0.0570   0.0000 
24    H8       2.4436  -35.1154   26.3371 H       1  LIG   0.0495   0.0000 
25    H9       3.7654  -34.0491   26.0108 H       1  LIG   0.0519   0.0000 
26    O1      -1.2400  -35.9060   23.9770 O.2     1  LIG  -0.6361  -0.5700 
27    C13      2.3440  -38.7570   21.0360 C.3     1  LIG   0.1354   0.0690 
28    H10      3.1238  -38.3754   20.4296 H       1  LIG   0.0981   0.1000 
29    C14      2.9380  -39.8900   21.8010 C.3     1  LIG  -0.1181  -0.2000 
30    H11      3.8890  -40.1268   21.3997 H       1  LIG   0.0732   0.1000 
31    H12      3.0430  -39.6129   22.8177 H       1  LIG   0.0789   0.1000 
32    C15      1.6390  -40.0610   21.0880 C.3     1  LIG  -0.1196  -0.2000 
33    H13      0.6832  -39.9283   21.5242 H       1  LIG   0.0807   0.1000 
34    H14      1.5292  -40.4423   20.1061 H       1  LIG   0.0733   0.1000 
@<TRIPOS>BOND
1     2     1     ar
2     3     2     1
3     4     2     ar
4     5     4     1
5     6     4     ar
6     7     6     ar
7     8     7     1
8     9     8     1
9     10    8     1
10    11    10    1
11    12    11    ar
12    13    12    1
13    14    12    ar
14    15    14    1
15    16    14    ar
16    17    16    1
17    18    16    ar
18    19    11    ar
19    19    18    ar
20    20    19    1
21    21    1     ar
22    21    7     ar
23    21    20    1
24    22    6     1
25    23    22    1
26    24    22    1
27    25    22    1
28    26    10    2
29    27    20    1
30    28    27    1
31    29    27    1
32    30    29    1
33    31    29    1
34    32    27    1
35    32    29    1
36    33    32    1
37    34    32    1
@<TRIPOS>SUBSTRUCTURE
1   LIG    1    
 
########## Name        : 1VRT.lig
########## Description : AM1BCC_CHARGES =  -0.0002 ORIGINAL_CHARGES =  -0.0000

@<TRIPOS>MOLECULE
1VRT.lig
34    37    1     0     0    
SMALL
USER_CHARGES
@<TRIPOS>ATOM
1     N1       4.0540  -36.9310   22.2210 N.ar    1  LIG  -0.6650  -0.6200 
2     C1       4.9660  -36.2380   22.9390 C.ar    1  LIG   0.3947   0.1600 
3     H1       6.0082  -36.2811   22.6707 H       1  LIG   0.0281   0.1500 
4     C2       4.6240  -35.4500   24.0360 C.ar    1  LIG  -0.2334  -0.1500 
5     H2       5.3884  -34.9151   24.5740 H       1  LIG   0.1480   0.1500 
6     C3       3.3050  -35.3690   24.4150 C.ar    1  LIG  -0.0698  -0.1435 
7     C4       2.3460  -36.0770   23.6860 C.ar    1  LIG  -0.0398   0.1170 
8     N2       0.9890  -36.0280   24.1030 N.am    1  LIG  -0.4596  -0.5470 
9     H3       0.7643  -35.9928   25.0860 H       1  LIG   0.3311   0.3700 
10    C5      -0.1450  -36.0180   23.4080 C.2     1  LIG   0.7361   0.5438 
11    C6      -0.1190  -36.0770   21.8860 C.ar    1  LIG  -0.2550   0.0862 
12    C7      -1.1230  -35.3990   21.1890 C.ar    1  LIG  -0.0321  -0.1500 
13    H4      -1.7552  -34.6955   21.7041 H       1  LIG   0.1623   0.1500 
14    C8      -1.2960  -35.6300   19.8690 C.ar    1  LIG  -0.2723  -0.1500 
15    H5      -2.0662  -35.1073   19.3273 H       1  LIG   0.1522   0.1500 
16    C9      -0.4670  -36.5450   19.2400 C.ar    1  LIG   0.4373   0.1600 
17    H6      -0.5947  -36.7554   18.1915 H       1  LIG   0.0280   0.1500 
18    N3       0.5220  -37.2120   19.8740 N.ar    1  LIG  -0.6893  -0.6200 
19    C10      0.7040  -36.9790   21.1800 C.ar    1  LIG   0.6480   0.4100 
20    N4       1.7670  -37.6730   21.8260 N.pl3   1  LIG  -0.6924  -0.3690 
21    C11      2.7540  -36.8570   22.5840 C.ar    1  LIG   0.5805   0.4100 
22    C12      2.9040  -34.5090   25.6010 C.3     1  LIG  -0.0620   0.1435 
23    H7       2.2235  -33.7630   25.2820 H       1  LIG   0.0570   0.0000 
24    H8       2.4436  -35.1154   26.3371 H       1  LIG   0.0495   0.0000 
25    H9       3.7654  -34.0491   26.0108 H       1  LIG   0.0519   0.0000 
26    O1      -1.2400  -35.9060   23.9770 O.2     1  LIG  -0.6361  -0.5700 
27    C13      2.3440  -38.7570   21.0360 C.3     1  LIG   0.1354   0.0690 
28    H10      3.1238  -38.3754   20.4296 H       1  LIG   0.0981   0.1000 
29    C14      2.9380  -39.8900   21.8010 C.3     1  LIG  -0.1181  -0.2000 
30    H11      3.8890  -40.1268   21.3997 H       1  LIG   0.0732   0.1000 
31    H12      3.0430  -39.6129   22.8177 H       1  LIG   0.0789   0.1000 
32    C15      1.6390  -40.0610   21.0880 C.3     1  LIG  -0.1196  -0.2000 
33    H13      0.6832  -39.9283   21.5242 H       1  LIG   0.0807   0.1000 
34    H14      1.5292  -40.4423   20.1061 H       1  LIG   0.0733   0.1000 
@<TRIPOS>BOND
1     2     1     ar
2     3     2     1
3     4     2     ar
4     5     4     1
5     6     4     ar
6     7     6     ar
7     8     7     1
8     9     8     1
9     10    8     1
10    11    10    1
11    12    11    ar
12    13    12    1
13    14    12    ar
14    15    14    1
15    16    14    ar
16    17    16    1
17    18    16    ar
18    19    11    ar
19    19    18    ar
20    20    19    1
21    21    1     ar
22    21    7     ar
23    21    20    1
24    22    6     1
25    23    22    1
26    24    22    1
27    25    22    1
28    26    10    2
29    27    20    1
30    28    27    1
31    29    27    1
32    30    29    1
33    31    29    1
34    32    27    1
35    32    29    1
36    33    32    1
37    34    32    1
@<TRIPOS>SUBSTRUCTURE
1   LIG    1    
 
########## Name        : 1VRT.lig
########## Description : AM1BCC_CHARGES =  -0.0002 ORIGINAL_CHARGES =  -0.0000

@<TRIPOS>MOLECULE
1VRT.lig
34    37    1     0     0    
SMALL
USER_CHARGES
@<TRIPOS>ATOM
1     N1       4.0540  -36.9310   22.2210 N.ar    1  LIG  -0.6650  -0.6200 
2     C1       4.9660  -36.2380   22.9390 C.ar    1  LIG   0.3947   0.1600 
3     H1       6.0082  -36.2811   22.6707 H       1  LIG   0.0281   0.1500 
4     C2       4.6240  -35.4500   24.0360 C.ar    1  LIG  -0.2334  -0.1500 
5     H2       5.3884  -34.9151   24.5740 H       1  LIG   0.1480   0.1500 
6     C3       3.3050  -35.3690   24.4150 C.ar    1  LIG  -0.0698  -0.1435 
7     C4       2.3460  -36.0770   23.6860 C.ar    1  LIG  -0.0398   0.1170 
8     N2       0.9890  -36.0280   24.1030 N.am    1  LIG  -0.4596  -0.5470 
9     H3       0.7643  -35.9928   25.0860 H       1  LIG   0.3311   0.3700 
10    C5      -0.1450  -36.0180   23.4080 C.2     1  LIG   0.7361   0.5438 
11    C6      -0.1190  -36.0770   21.8860 C.ar    1  LIG  -0.2550   0.0862 
12    C7      -1.1230  -35.3990   21.1890 C.ar    1  LIG  -0.0321  -0.1500 
13    H4      -1.7552  -34.6955   21.7041 H       1  LIG   0.1623   0.1500 
14    C8      -1.2960  -35.6300   19.8690 C.ar    1  LIG  -0.2723  -0.1500 
15    H5      -2.0662  -35.1073   19.3273 H       1  LIG   0.1522   0.1500 
16    C9      -0.4670  -36.5450   19.2400 C.ar    1  LIG   0.4373   0.1600 
17    H6      -0.5947  -36.7554   18.1915 H       1  LIG   0.0280   0.1500 
18    N3       0.5220  -37.2120   19.8740 N.ar    1  LIG  -0.6893  -0.6200 
19    C10      0.7040  -36.9790   21.1800 C.ar    1  LIG   0.6480   0.4100 
20    N4       1.7670  -37.6730   21.8260 N.pl3   1  LIG  -0.6924  -0.3690 
21    C11      2.7540  -36.8570   22.5840 C.ar    1  LIG   0.5805   0.4100 
22    C12      2.9040  -34.5090   25.6010 C.3     1  LIG  -0.0620   0.1435 
23    H7       2.2235  -33.7630   25.2820 H       1  LIG   0.0570   0.0000 
24    H8       2.4436  -35.1154   26.3371 H       1  LIG   0.0495   0.0000 
25    H9       3.7654  -34.0491   26.0108 H       1  LIG   0.0519   0.0000 
26    O1      -1.2400  -35.9060   23.9770 O.2     1  LIG  -0.6361  -0.5700 
27    C13      2.3440  -38.7570   21.0360 C.3     1  LIG   0.1354   0.0690 
28    H10      3.1238  -38.3754   20.4296 H       1  LIG   0.0981   0.1000 
29    C14      2.9380  -39.8900   21.8010 C.3     1  LIG  -0.1181  -0.2000 
30    H11      3.8890  -40.1268   21.3997 H       1  LIG   0.0732   0.1000 
31    H12      3.0430  -39.6129   22.8177 H       1  LIG   0.0789   0.1000 
32    C15      1.6390  -40.0610   21.0880 C.3     1  LIG  -0.1196  -0.2000 
33    H13      0.6832  -39.9283   21.5242 H       1  LIG   0.0807   0.1000 
34    H14      1.5292  -40.4423   20.1061 H       1  LIG   0.0733   0.1000 
@<TRIPOS>BOND
1     2     1     ar
2     3     2     1
3     4     2     ar
4     5     4     1
5     6     4     ar
6     7     6     ar
7     8     7     1
8     9     8     1
9     10    8     1
10    11    10    1
11    12    11    ar
12    13    12    1
13    14    12    ar
14    15    14    1
15    16    14    ar
16    17    16    1
17    18    16    ar
18    19    11    ar
19    19    18    ar
20    20    19    1
21    21    1     ar
22    21    7     ar
23    21    20    1
24    22    6     1
25    23    22    1
26    24    22    1
27    25    22    1
28    26    10    2
29    27    20    1
30    28    27    1
31    29    27    1
32    30    29    1
33    31    29    1
34    32    27    1
35    32    29    1
36    33    32    1
37    34    32    1
@<TRIPOS>SUBSTRUCTURE
1   LIG    1    
 
########## Name        : 1VRT.lig
########## Description : AM1BCC_CHARGES =  -0.0002 ORIGINAL_CHARGES =  -0.0000

@<TRIPOS>MOLECULE
1VRT.lig
34    37    1     0     0    
SMALL
USER_CHARGES
@<TRIPOS>ATOM
1     N1       4.0540  -36.9310   22.2210 N.ar    1  LIG  -0.6650  -0.6200 
2     C1       4.9660  -36.2380   22.9390 C.ar    1  LIG   0.3947   0.1600 
3     H1       6.0082  -36.2811   22.6707 H       1  LIG   0.0281   0.1500 
4     C2       4.6240  -35.4500   24.0360 C.ar    1  LIG  -0.2334  -0.1500 
5     H2       5.3884  -34.9151   24.5740 H       1  LIG   0.1480   0.1500 
6     C3       3.3050  -35.3690   24.4150 C.ar    1  LIG  -0.0698  -0.1435 
7     C4       2.3460  -36.0770   23.6860 C.ar    1  LIG  -0.0398   0.1170 
8     N2       0.9890  -36.0280   24.1030 N.am    1  LIG  -0.4596  -0.5470 
9     H3       0.7643  -35.9928   25.0860 H       1  LIG   0.3311   0.3700 
10    C5      -0.1450  -36.0180   23.4080 C.2     1  LIG   0.7361   0.5438 
11    C6      -0.1190  -36.0770   21.8860 C.ar    1  LIG  -0.2550   0.0862 
12    C7      -1.1230  -35.3990   21.1890 C.ar    1  LIG  -0.0321  -0.1500 
13    H4      -1.7552  -34.6955   21.7041 H       1  LIG   0.1623   0.1500 
14    C8      -1.2960  -35.6300   19.8690 C.ar    1  LIG  -0.2723  -0.1500 
15    H5      -2.0662  -35.1073   19.3273 H       1  LIG   0.1522   0.1500 
16    C9      -0.4670  -36.5450   19.2400 C.ar    1  LIG   0.4373   0.1600 
17    H6      -0.5947  -36.7554   18.1915 H       1  LIG   0.0280   0.1500 
18    N3       0.5220  -37.2120   19.8740 N.ar    1  LIG  -0.6893  -0.6200 
19    C10      0.7040  -36.9790   21.1800 C.ar    1  LIG   0.6480   0.4100 
20    N4       1.7670  -37.6730   21.8260 N.pl3   1  LIG  -0.6924  -0.3690 
21    C11      2.7540  -36.8570   22.5840 C.ar    1  LIG   0.5805   0.4100 
22    C12      2.9040  -34.5090   25.6010 C.3     1  LIG  -0.0620   0.1435 
23    H7       2.2235  -33.7630   25.2820 H       1  LIG   0.0570   0.0000 
24    H8       2.4436  -35.1154   26.3371 H       1  LIG   0.0495   0.0000 
25    H9       3.7654  -34.0491   26.0108 H       1  LIG   0.0519   0.0000 
26    O1      -1.2400  -35.9060   23.9770 O.2     1  LIG  -0.6361  -0.5700 
27    C13      2.3440  -38.7570   21.0360 C.3     1  LIG   0.1354   0.0690 
28    H10      3.1238  -38.3754   20.4296 H       1  LIG   0.0981   0.1000 
29    C14      2.9380  -39.8900   21.8010 C.3     1  LIG  -0.1181  -0.2000 
30    H11      3.8890  -40.1268   21.3997 H       1  LIG   0.0732   0.1000 
31    H12      3.0430  -39.6129   22.8177 H       1  LIG   0.0789   0.1000 
32    C15      1.6390  -40.0610   21.0880 C.3     1  LIG  -0.1196  -0.2000 
33    H13      0.6832  -39.9283   21.5242 H       1  LIG   0.0807   0.1000 
34    H14      1.5292  -40.4423   20.1061 H       1  LIG   0.0733   0.1000 
@<TRIPOS>BOND
1     2     1     ar
2     3     2     1
3     4     2     ar
4     5     4     1
5     6     4     ar
6     7     6     ar
7     8     7     1
8     9     8     1
9     10    8     1
10    11    10    1
11    12    11    ar
12    13    12    1
13    14    12    ar
14    15    14    1
15    16    14    ar
16    17    16    1
17    18    16    ar
18    19    11    ar
19    19    18    ar
20    20    19    1
21    21    1     ar
22    21    7     ar
23    21    20    1
24    22    6     1
25    23    22    1
26    24    22    1
27    25    22    1
28    26    10    2
29    27    20    1
30    28    27    1
31    29    27    1
32    30    29    1
33    31    29    1
34    32    27    1
35    32    29    1
36    33    32    1
37    34    32    1
@<TRIPOS>SUBSTRUCTURE
1   LIG    1    
 
########## Name        : 1VRT.lig
########## Description : AM1BCC_CHARGES =  -0.0002 ORIGINAL_CHARGES =  -0.0000

@<TRIPOS>MOLECULE
1VRT.lig
34    37    1     0     0    
SMALL
USER_CHARGES
@<TRIPOS>ATOM
1     N1       4.0540  -36.9310   22.2210 N.ar    1  LIG  -0.6650  -0.6200 
2     C1       4.9660  -36.2380   22.9390 C.ar    1  LIG   0.3947   0.1600 
3     H1       6.0082  -36.2811   22.6707 H       1  LIG   0.0281   0.1500 
4     C2       4.6240  -35.4500   24.0360 C.ar    1  LIG  -0.2334  -0.1500 
5     H2       5.3884  -34.9151   24.5740 H       1  LIG   0.1480   0.1500 
6     C3       3.3050  -35.3690   24.4150 C.ar    1  LIG  -0.0698  -0.1435 
7     C4       2.3460  -36.0770   23.6860 C.ar    1  LIG  -0.0398   0.1170 
8     N2       0.9890  -36.0280   24.1030 N.am    1  LIG  -0.4596  -0.5470 
9     H3       0.7643  -35.9928   25.0860 H       1  LIG   0.3311   0.3700 
10    C5      -0.1450  -36.0180   23.4080 C.2     1  LIG   0.7361   0.5438 
11    C6      -0.1190  -36.0770   21.8860 C.ar    1  LIG  -0.2550   0.0862 
12    C7      -1.1230  -35.3990   21.1890 C.ar    1  LIG  -0.0321  -0.1500 
13    H4      -1.7552  -34.6955   21.7041 H       1  LIG   0.1623   0.1500 
14    C8      -1.2960  -35.6300   19.8690 C.ar    1  LIG  -0.2723  -0.1500 
15    H5      -2.0662  -35.1073   19.3273 H       1  LIG   0.1522   0.1500 
16    C9      -0.4670  -36.5450   19.2400 C.ar    1  LIG   0.4373   0.1600 
17    H6      -0.5947  -36.7554   18.1915 H       1  LIG   0.0280   0.1500 
18    N3       0.5220  -37.2120   19.8740 N.ar    1  LIG  -0.6893  -0.6200 
19    C10      0.7040  -36.9790   21.1800 C.ar    1  LIG   0.6480   0.4100 
20    N4       1.7670  -37.6730   21.8260 N.pl3   1  LIG  -0.6924  -0.3690 
21    C11      2.7540  -36.8570   22.5840 C.ar    1  LIG   0.5805   0.4100 
22    C12      2.9040  -34.5090   25.6010 C.3     1  LIG  -0.0620   0.1435 
23    H7       2.2235  -33.7630   25.2820 H       1  LIG   0.0570   0.0000 
24    H8       2.4436  -35.1154   26.3371 H       1  LIG   0.0495   0.0000 
25    H9       3.7654  -34.0491   26.0108 H       1  LIG   0.0519   0.0000 
26    O1      -1.2400  -35.9060   23.9770 O.2     1  LIG  -0.6361  -0.5700 
27    C13      2.3440  -38.7570   21.0360 C.3     1  LIG   0.1354   0.0690 
28    H10      3.1238  -38.3754   20.4296 H       1  LIG   0.0981   0.1000 
29    C14      2.9380  -39.8900   21.8010 C.3     1  LIG  -0.1181  -0.2000 
30    H11      3.8890  -40.1268   21.3997 H       1  LIG   0.0732   0.1000 
31    H12      3.0430  -39.6129   22.8177 H       1  LIG   0.0789   0.1000 
32    C15      1.6390  -40.0610   21.0880 C.3     1  LIG  -0.1196  -0.2000 
33    H13      0.6832  -39.9283   21.5242 H       1  LIG   0.0807   0.1000 
34    H14      1.5292  -40.4423   20.1061 H       1  LIG   0.0733   0.1000 
@<TRIPOS>BOND
1     2     1     ar
2     3     2     1
3     4     2     ar
4     5     4     1
5     6     4     ar
6     7     6     ar
7     8     7     1
8     9     8     1
9     10    8     1
10    11    10    1
11    12    11    ar
12    13    12    1
13    14    12    ar
14    15    14    1
15    16    14    ar
16    17    16    1
17    18    16    ar
18    19    11    ar
19    19    18    ar
20    20    19    1
21    21    1     ar
22    21    7     ar
23    21    20    1
24    22    6     1
25    23    22    1
26    24    22    1
27    25    22    1
28    26    10    2
29    27    20    1
30    28    27    1
31    29    27    1
32    30    29    1
33    31    29    1
34    32    27    1
35    32    29    1
36    33    32    1
37    34    32    1
@<TRIPOS>SUBSTRUCTURE
1   LIG    1    
 
########## Name        : 1VRT.lig
########## Description : AM1BCC_CHARGES =  -0.0002 ORIGINAL_CHARGES =  -0.0000

@<TRIPOS>MOLECULE
1VRT.lig
34    37    1     0     0    
SMALL
USER_CHARGES
@<TRIPOS>ATOM
1     N1       4.0540  -36.9310   22.2210 N.ar    1  LIG  -0.6650  -0.6200 
2     C1       4.9660  -36.2380   22.9390 C.ar    1  LIG   0.3947   0.1600 
3     H1       6.0082  -36.2811   22.6707 H       1  LIG   0.0281   0.1500 
4     C2       4.6240  -35.4500   24.0360 C.ar    1  LIG  -0.2334  -0.1500 
5     H2       5.3884  -34.9151   24.5740 H       1  LIG   0.1480   0.1500 
6     C3       3.3050  -35.3690   24.4150 C.ar    1  LIG  -0.0698  -0.1435 
7     C4       2.3460  -36.0770   23.6860 C.ar    1  LIG  -0.0398   0.1170 
8     N2       0.9890  -36.0280   24.1030 N.am    1  LIG  -0.4596  -0.5470 
9     H3       0.7643  -35.9928   25.0860 H       1  LIG   0.3311   0.3700 
10    C5      -0.1450  -36.0180   23.4080 C.2     1  LIG   0.7361   0.5438 
11    C6      -0.1190  -36.0770   21.8860 C.ar    1  LIG  -0.2550   0.0862 
12    C7      -1.1230  -35.3990   21.1890 C.ar    1  LIG  -0.0321  -0.1500 
13    H4      -1.7552  -34.6955   21.7041 H       1  LIG   0.1623   0.1500 
14    C8      -1.2960  -35.6300   19.8690 C.ar    1  LIG  -0.2723  -0.1500 
15    H5      -2.0662  -35.1073   19.3273 H       1  LIG   0.1522   0.1500 
16    C9      -0.4670  -36.5450   19.2400 C.ar    1  LIG   0.4373   0.1600 
17    H6      -0.5947  -36.7554   18.1915 H       1  LIG   0.0280   0.1500 
18    N3       0.5220  -37.2120   19.8740 N.ar    1  LIG  -0.6893  -0.6200 
19    C10      0.7040  -36.9790   21.1800 C.ar    1  LIG   0.6480   0.4100 
20    N4       1.7670  -37.6730   21.8260 N.pl3   1  LIG  -0.6924  -0.3690 
21    C11      2.7540  -36.8570   22.5840 C.ar    1  LIG   0.5805   0.4100 
22    C12      2.9040  -34.5090   25.6010 C.3     1  LIG  -0.0620   0.1435 
23    H7       2.2235  -33.7630   25.2820 H       1  LIG   0.0570   0.0000 
24    H8       2.4436  -35.1154   26.3371 H       1  LIG   0.0495   0.0000 
25    H9       3.7654  -34.0491   26.0108 H       1  LIG   0.0519   0.0000 
26    O1      -1.2400  -35.9060   23.9770 O.2     1  LIG  -0.6361  -0.5700 
27    C13      2.3440  -38.7570   21.0360 C.3     1  LIG   0.1354   0.0690 
28    H10      3.1238  -38.3754   20.4296 H       1  LIG   0.0981   0.1000 
29    C14      2.9380  -39.8900   21.8010 C.3     1  LIG  -0.1181  -0.2000 
30    H11      3.8890  -40.1268   21.3997 H       1  LIG   0.0732   0.1000 
31    H12      3.0430  -39.6129   22.8177 H       1  LIG   0.0789   0.1000 
32    C15      1.6390  -40.0610   21.0880 C.3     1  LIG  -0.1196  -0.2000 
33    H13      0.6832  -39.9283   21.5242 H       1  LIG   0.0807   0.1000 
34    H14      1.5292  -40.4423   20.1061 H       1  LIG   0.0733   0.1000 
@<TRIPOS>BOND
1     2     1     ar
2     3     2     1
3     4     2     ar
4     5     4     1
5     6     4     ar
6     7     6     ar
7     8     7     1
8     9     8     1
9     10    8     1
10    11    10    1
11    12    11    ar
12    13    12    1
13    14    12    ar
14    15    14    1
15    16    14    ar
16    17    16    1
17    18    16    ar
18    19    11    ar
19    19    18    ar
20    20    19    1
21    21    1     ar
22    21    7     ar
23    21    20    1
24    22    6     1
25    23    22    1
26    24    22    1
27    25    22    1
28    26    10    2
29    27    20    1
30    28    27    1
31    29    27    1
32    30    29    1
33    31    29    1
34    32    27    1
35    32    29    1
36    33    32    1
37    34    32    1
@<TRIPOS>SUBSTRUCTURE
1   LIG    1    
 
########## Name        : 1VRT.lig
########## Description : AM1BCC_CHARGES =  -0.0002 ORIGINAL_CHARGES =  -0.0000

@<TRIPOS>MOLECULE
1VRT.lig
34    37    1     0     0    
SMALL
USER_CHARGES
@<TRIPOS>ATOM
1     N1       4.0540  -36.9310   22.2210 N.ar    1  LIG  -0.6650  -0.6200 
2     C1       4.9660  -36.2380   22.9390 C.ar    1  LIG   0.3947   0.1600 
3     H1       6.0082  -36.2811   22.6707 H       1  LIG   0.0281   0.1500 
4     C2       4.6240  -35.4500   24.0360 C.ar    1  LIG  -0.2334  -0.1500 
5     H2       5.3884  -34.9151   24.5740 H       1  LIG   0.1480   0.1500 
6     C3       3.3050  -35.3690   24.4150 C.ar    1  LIG  -0.0698  -0.1435 
7     C4       2.3460  -36.0770   23.6860 C.ar    1  LIG  -0.0398   0.1170 
8     N2       0.9890  -36.0280   24.1030 N.am    1  LIG  -0.4596  -0.5470 
9     H3       0.7643  -35.9928   25.0860 H       1  LIG   0.3311   0.3700 
10    C5      -0.1450  -36.0180   23.4080 C.2     1  LIG   0.7361   0.5438 
11    C6      -0.1190  -36.0770   21.8860 C.ar    1  LIG  -0.2550   0.0862 
12    C7      -1.1230  -35.3990   21.1890 C.ar    1  LIG  -0.0321  -0.1500 
13    H4      -1.7552  -34.6955   21.7041 H       1  LIG   0.1623   0.1500 
14    C8      -1.2960  -35.6300   19.8690 C.ar    1  LIG  -0.2723  -0.1500 
15    H5      -2.0662  -35.1073   19.3273 H       1  LIG   0.1522   0.1500 
16    C9      -0.4670  -36.5450   19.2400 C.ar    1  LIG   0.4373   0.1600 
17    H6      -0.5947  -36.7554   18.1915 H       1  LIG   0.0280   0.1500 
18    N3       0.5220  -37.2120   19.8740 N.ar    1  LIG  -0.6893  -0.6200 
19    C10      0.7040  -36.9790   21.1800 C.ar    1  LIG   0.6480   0.4100 
20    N4       1.7670  -37.6730   21.8260 N.pl3   1  LIG  -0.6924  -0.3690 
21    C11      2.7540  -36.8570   22.5840 C.ar    1  LIG   0.5805   0.4100 
22    C12      2.9040  -34.5090   25.6010 C.3     1  LIG  -0.0620   0.1435 
23    H7       2.2235  -33.7630   25.2820 H       1  LIG   0.0570   0.0000 
24    H8       2.4436  -35.1154   26.3371 H       1  LIG   0.0495   0.0000 
25    H9       3.7654  -34.0491   26.0108 H       1  LIG   0.0519   0.0000 
26    O1      -1.2400  -35.9060   23.9770 O.2     1  LIG  -0.6361  -0.5700 
27    C13      2.3440  -38.7570   21.0360 C.3     1  LIG   0.1354   0.0690 
28    H10      3.1238  -38.3754   20.4296 H       1  LIG   0.0981   0.1000 
29    C14      2.9380  -39.8900   21.8010 C.3     1  LIG  -0.1181  -0.2000 
30    H11      3.8890  -40.1268   21.3997 H       1  LIG   0.0732   0.1000 
31    H12      3.0430  -39.6129   22.8177 H       1  LIG   0.0789   0.1000 
32    C15      1.6390  -40.0610   21.0880 C.3     1  LIG  -0.1196  -0.2000 
33    H13      0.6832  -39.9283   21.5242 H       1  LIG   0.0807   0.1000 
34    H14      1.5292  -40.4423   20.1061 H       1  LIG   0.0733   0.1000 
@<TRIPOS>BOND
1     2     1     ar
2     3     2     1
3     4     2     ar
4     5     4     1
5     6     4     ar
6     7     6     ar
7     8     7     1
8     9     8     1
9     10    8     1
10    11    10    1
11    12    11    ar
12    13    12    1
13    14    12    ar
14    15    14    1
15    16    14    ar
16    17    16    1
17    18    16    ar
18    19    11    ar
19    19    18    ar
20    20    19    1
21    21    1     ar
22    21    7     ar
23    21    20    1
24    22    6     1
25    23    22    1
26    24    22    1
27    25    22    1
28    26    10    2
29    27    20    1
30    28    27    1
31    29    27    1
32    30    29    1
33    31    29    1
34    32    27    1
35    32    29    1
36    33    32    1
37    34    32    1
@<TRIPOS>SUBSTRUCTURE
1   LIG    1    
 
########## Name        : 1VRT.lig
########## Description : AM1BCC_CHARGES =  -0.0002 ORIGINAL_CHARGES =  -0.0000

@<TRIPOS>MOLECULE
1VRT.lig
34    37    1     0     0    
SMALL
USER_CHARGES
@<TRIPOS>ATOM
1     N1       4.0540  -36.9310   22.2210 N.ar    1  LIG  -0.6650  -0.6200 
2     C1       4.9660  -36.2380   22.9390 C.ar    1  LIG   0.3947   0.1600 
3     H1       6.0082  -36.2811   22.6707 H       1  LIG   0.0281   0.1500 
4     C2       4.6240  -35.4500   24.0360 C.ar    1  LIG  -0.2334  -0.1500 
5     H2       5.3884  -34.9151   24.5740 H       1  LIG   0.1480   0.1500 
6     C3       3.3050  -35.3690   24.4150 C.ar    1  LIG  -0.0698  -0.1435 
7     C4       2.3460  -36.0770   23.6860 C.ar    1  LIG  -0.0398   0.1170 
8     N2       0.9890  -36.0280   24.1030 N.am    1  LIG  -0.4596  -0.5470 
9     H3       0.7643  -35.9928   25.0860 H       1  LIG   0.3311   0.3700 
10    C5      -0.1450  -36.0180   23.4080 C.2     1  LIG   0.7361   0.5438 
11    C6      -0.1190  -36.0770   21.8860 C.ar    1  LIG  -0.2550   0.0862 
12    C7      -1.1230  -35.3990   21.1890 C.ar    1  LIG  -0.0321  -0.1500 
13    H4      -1.7552  -34.6955   21.7041 H       1  LIG   0.1623   0.1500 
14    C8      -1.2960  -35.6300   19.8690 C.ar    1  LIG  -0.2723  -0.1500 
15    H5      -2.0662  -35.1073   19.3273 H       1  LIG   0.1522   0.1500 
16    C9      -0.4670  -36.5450   19.2400 C.ar    1  LIG   0.4373   0.1600 
17    H6      -0.5947  -36.7554   18.1915 H       1  LIG   0.0280   0.1500 
18    N3       0.5220  -37.2120   19.8740 N.ar    1  LIG  -0.6893  -0.6200 
19    C10      0.7040  -36.9790   21.1800 C.ar    1  LIG   0.6480   0.4100 
20    N4       1.7670  -37.6730   21.8260 N.pl3   1  LIG  -0.6924  -0.3690 
21    C11      2.7540  -36.8570   22.5840 C.ar    1  LIG   0.5805   0.4100 
22    C12      2.9040  -34.5090   25.6010 C.3     1  LIG  -0.0620   0.1435 
23    H7       2.2235  -33.7630   25.2820 H       1  LIG   0.0570   0.0000 
24    H8       2.4436  -35.1154   26.3371 H       1  LIG   0.0495   0.0000 
25    H9       3.7654  -34.0491   26.0108 H       1  LIG   0.0519   0.0000 
26    O1      -1.2400  -35.9060   23.9770 O.2     1  LIG  -0.6361  -0.5700 
27    C13      2.3440  -38.7570   21.0360 C.3     1  LIG   0.1354   0.0690 
28    H10      3.1238  -38.3754   20.4296 H       1  LIG   0.0981   0.1000 
29    C14      2.9380  -39.8900   21.8010 C.3     1  LIG  -0.1181  -0.2000 
30    H11      3.8890  -40.1268   21.3997 H       1  LIG   0.0732   0.1000 
31    H12      3.0430  -39.6129   22.8177 H       1  LIG   0.0789   0.1000 
32    C15      1.6390  -40.0610   21.0880 C.3     1  LIG  -0.1196  -0.2000 
33    H13      0.6832  -39.9283   21.5242 H       1  LIG   0.0807   0.1000 
34    H14      1.5292  -40.4423   20.1061 H       1  LIG   0.0733   0.1000 
@<TRIPOS>BOND
1     2     1     ar
2     3     2     1
3     4     2     ar
4     5     4     1
5     6     4     ar
6     7     6     ar
7     8     7     1
8     9     8     1
9     10    8     1
10    11    10    1
11    12    11    ar
12    13    12    1
13    14    12    ar
14    15    14    1
15    16    14    ar
16    17    16    1
17    18    16    ar
18    19    11    ar
19    19    18    ar
20    20    19    1
21    21    1     ar
22    21    7     ar
23    21    20    1
24    22    6     1
25    23    22    1
26    24    22    1
27    25    22    1
28    26    10    2
29    27    20    1
30    28    27    1
31    29    27    1
32    30    29    1
33    31    29    1
34    32    27    1
35    32    29    1
36    33    32    1
37    34    32    1
@<TRIPOS>SUBSTRUCTURE
1   LIG    1    
 
########## Name        : 1VRT.lig
########## Description : AM1BCC_CHARGES =  -0.0002 ORIGINAL_CHARGES =  -0.0000

@<TRIPOS>MOLECULE
1VRT.lig
34    37    1     0     0    
SMALL
USER_CHARGES
@<TRIPOS>ATOM
1     N1       4.0540  -36.9310   22.2210 N.ar    1  LIG  -0.6650  -0.6200 
2     C1       4.9660  -36.2380   22.9390 C.ar    1  LIG   0.3947   0.1600 
3     H1       6.0082  -36.2811   22.6707 H       1  LIG   0.0281   0.1500 
4     C2       4.6240  -35.4500   24.0360 C.ar    1  LIG  -0.2334  -0.1500 
5     H2       5.3884  -34.9151   24.5740 H       1  LIG   0.1480   0.1500 
6     C3       3.3050  -35.3690   24.4150 C.ar    1  LIG  -0.0698  -0.1435 
7     C4       2.3460  -36.0770   23.6860 C.ar    1  LIG  -0.0398   0.1170 
8     N2       0.9890  -36.0280   24.1030 N.am    1  LIG  -0.4596  -0.5470 
9     H3       0.7643  -35.9928   25.0860 H       1  LIG   0.3311   0.3700 
10    C5      -0.1450  -36.0180   23.4080 C.2     1  LIG   0.7361   0.5438 
11    C6      -0.1190  -36.0770   21.8860 C.ar    1  LIG  -0.2550   0.0862 
12    C7      -1.1230  -35.3990   21.1890 C.ar    1  LIG  -0.0321  -0.1500 
13    H4      -1.7552  -34.6955   21.7041 H       1  LIG   0.1623   0.1500 
14    C8      -1.2960  -35.6300   19.8690 C.ar    1  LIG  -0.2723  -0.1500 
15    H5      -2.0662  -35.1073   19.3273 H       1  LIG   0.1522   0.1500 
16    C9      -0.4670  -36.5450   19.2400 C.ar    1  LIG   0.4373   0.1600 
17    H6      -0.5947  -36.7554   18.1915 H       1  LIG   0.0280   0.1500 
18    N3       0.5220  -37.2120   19.8740 N.ar    1  LIG  -0.6893  -0.6200 
19    C10      0.7040  -36.9790   21.1800 C.ar    1  LIG   0.6480   0.4100 
20    N4       1.7670  -37.6730   21.8260 N.pl3   1  LIG  -0.6924  -0.3690 
21    C11      2.7540  -36.8570   22.5840 C.ar    1  LIG   0.5805   0.4100 
22    C12      2.9040  -34.5090   25.6010 C.3     1  LIG  -0.0620   0.1435 
23    H7       2.2235  -33.7630   25.2820 H       1  LIG   0.0570   0.0000 
24    H8       2.4436  -35.1154   26.3371 H       1  LIG   0.0495   0.0000 
25    H9       3.7654  -34.0491   26.0108 H       1  LIG   0.0519   0.0000 
26    O1      -1.2400  -35.9060   23.9770 O.2     1  LIG  -0.6361  -0.5700 
27    C13      2.3440  -38.7570   21.0360 C.3     1  LIG   0.1354   0.0690 
28    H10      3.1238  -38.3754   20.4296 H       1  LIG   0.0981   0.1000 
29    C14      2.9380  -39.8900   21.8010 C.3     1  LIG  -0.1181  -0.2000 
30    H11      3.8890  -40.1268   21.3997 H       1  LIG   0.0732   0.1000 
31    H12      3.0430  -39.6129   22.8177 H       1  LIG   0.0789   0.1000 
32    C15      1.6390  -40.0610   21.0880 C.3     1  LIG  -0.1196  -0.2000 
33    H13      0.6832  -39.9283   21.5242 H       1  LIG   0.0807   0.1000 
34    H14      1.5292  -40.4423   20.1061 H       1  LIG   0.0733   0.1000 
@<TRIPOS>BOND
1     2     1     ar
2     3     2     1
3     4     2     ar
4     5     4     1
5     6     4     ar
6     7     6     ar
7     8     7     1
8     9     8     1
9     10    8     1
10    11    10    1
11    12    11    ar
12    13    12    1
13    14    12    ar
14    15    14    1
15    16    14    ar
16    17    16    1
17    18    16    ar
18    19    11    ar
19    19    18    ar
20    20    19    1
21    21    1     ar
22    21    7     ar
23    21    20    1
24    22    6     1
25    23    22    1
26    24    22    1
27    25    22    1
28    26    10    2
29    27    20    1
30    28    27    1
31    29    27    1
32    30    29    1
33    31    29    1
34    32    27    1
35    32    29    1
36    33    32    1
37    34    32    1
@<TRIPOS>SUBSTRUCTURE
1   LIG    1    
 
########## Name        : 1VRT.lig
########## Description : AM1BCC_CHARGES =  -0.0002 ORIGINAL_CHARGES =  -0.0000

@<TRIPOS>MOLECULE
1VRT.lig
34    37    1     0     0    
SMALL
USER_CHARGES
@<TRIPOS>ATOM
1     N1       4.0540  -36.9310   22.2210 N.ar    1  LIG  -0.6650  -0.6200 
2     C1       4.9660  -36.2380   22.9390 C.ar    1  LIG   0.3947   0.1600 
3     H1       6.0082  -36.2811   22.6707 H       1  LIG   0.0281   0.1500 
4     C2       4.6240  -35.4500   24.0360 C.ar    1  LIG  -0.2334  -0.1500 
5     H2       5.3884  -34.9151   24.5740 H       1  LIG   0.1480   0.1500 
6     C3       3.3050  -35.3690   24.4150 C.ar    1  LIG  -0.0698  -0.1435 
7     C4       2.3460  -36.0770   23.6860 C.ar    1  LIG  -0.0398   0.1170 
8     N2       0.9890  -36.0280   24.1030 N.am    1  LIG  -0.4596  -0.5470 
9     H3       0.7643  -35.9928   25.0860 H       1  LIG   0.3311   0.3700 
10    C5      -0.1450  -36.0180   23.4080 C.2     1  LIG   0.7361   0.5438 
11    C6      -0.1190  -36.0770   21.8860 C.ar    1  LIG  -0.2550   0.0862 
12    C7      -1.1230  -35.3990   21.1890 C.ar    1  LIG  -0.0321  -0.1500 
13    H4      -1.7552  -34.6955   21.7041 H       1  LIG   0.1623   0.1500 
14    C8      -1.2960  -35.6300   19.8690 C.ar    1  LIG  -0.2723  -0.1500 
15    H5      -2.0662  -35.1073   19.3273 H       1  LIG   0.1522   0.1500 
16    C9      -0.4670  -36.5450   19.2400 C.ar    1  LIG   0.4373   0.1600 
17    H6      -0.5947  -36.7554   18.1915 H       1  LIG   0.0280   0.1500 
18    N3       0.5220  -37.2120   19.8740 N.ar    1  LIG  -0.6893  -0.6200 
19    C10      0.7040  -36.9790   21.1800 C.ar    1  LIG   0.6480   0.4100 
20    N4       1.7670  -37.6730   21.8260 N.pl3   1  LIG  -0.6924  -0.3690 
21    C11      2.7540  -36.8570   22.5840 C.ar    1  LIG   0.5805   0.4100 
22    C12      2.9040  -34.5090   25.6010 C.3     1  LIG  -0.0620   0.1435 
23    H7       2.2235  -33.7630   25.2820 H       1  LIG   0.0570   0.0000 
24    H8       2.4436  -35.1154   26.3371 H       1  LIG   0.0495   0.0000 
25    H9       3.7654  -34.0491   26.0108 H       1  LIG   0.0519   0.0000 
26    O1      -1.2400  -35.9060   23.9770 O.2     1  LIG  -0.6361  -0.5700 
27    C13      2.3440  -38.7570   21.0360 C.3     1  LIG   0.1354   0.0690 
28    H10      3.1238  -38.3754   20.4296 H       1  LIG   0.0981   0.1000 
29    C14      2.9380  -39.8900   21.8010 C.3     1  LIG  -0.1181  -0.2000 
30    H11      3.8890  -40.1268   21.3997 H       1  LIG   0.0732   0.1000 
31    H12      3.0430  -39.6129   22.8177 H       1  LIG   0.0789   0.1000 
32    C15      1.6390  -40.0610   21.0880 C.3     1  LIG  -0.1196  -0.2000 
33    H13      0.6832  -39.9283   21.5242 H       1  LIG   0.0807   0.1000 
34    H14      1.5292  -40.4423   20.1061 H       1  LIG   0.0733   0.1000 
@<TRIPOS>BOND
1     2     1     ar
2     3     2     1
3     4     2     ar
4     5     4     1
5     6     4     ar
6     7     6     ar
7     8     7     1
8     9     8     1
9     10    8     1
10    11    10    1
11    12    11    ar
12    13    12    1
13    14    12    ar
14    15    14    1
15    16    14    ar
16    17    16    1
17    18    16    ar
18    19    11    ar
19    19    18    ar
20    20    19    1
21    21    1     ar
22    21    7     ar
23    21    20    1
24    22    6     1
25    23    22    1
26    24    22    1
27    25    22    1
28    26    10    2
29    27    20    1
30    28    27    1
31    29    27    1
32    30    29    1
33    31    29    1
34    32    27    1
35    32    29    1
36    33    32    1
37    34    32    1
@<TRIPOS>SUBSTRUCTURE
1   LIG    1    
 
########## Name        : 1VRT.lig
########## Description : AM1BCC_CHARGES =  -0.0002 ORIGINAL_CHARGES =  -0.0000

@<TRIPOS>MOLECULE
1VRT.lig
34    37    1     0     0    
SMALL
USER_CHARGES
@<TRIPOS>ATOM
1     N1       4.0540  -36.9310   22.2210 N.ar    1  LIG  -0.6650  -0.6200 
2     C1       4.9660  -36.2380   22.9390 C.ar    1  LIG   0.3947   0.1600 
3     H1       6.0082  -36.2811   22.6707 H       1  LIG   0.0281   0.1500 
4     C2       4.6240  -35.4500   24.0360 C.ar    1  LIG  -0.2334  -0.1500 
5     H2       5.3884  -34.9151   24.5740 H       1  LIG   0.1480   0.1500 
6     C3       3.3050  -35.3690   24.4150 C.ar    1  LIG  -0.0698  -0.1435 
7     C4       2.3460  -36.0770   23.6860 C.ar    1  LIG  -0.0398   0.1170 
8     N2       0.9890  -36.0280   24.1030 N.am    1  LIG  -0.4596  -0.5470 
9     H3       0.7643  -35.9928   25.0860 H       1  LIG   0.3311   0.3700 
10    C5      -0.1450  -36.0180   23.4080 C.2     1  LIG   0.7361   0.5438 
11    C6      -0.1190  -36.0770   21.8860 C.ar    1  LIG  -0.2550   0.0862 
12    C7      -1.1230  -35.3990   21.1890 C.ar    1  LIG  -0.0321  -0.1500 
13    H4      -1.7552  -34.6955   21.7041 H       1  LIG   0.1623   0.1500 
14    C8      -1.2960  -35.6300   19.8690 C.ar    1  LIG  -0.2723  -0.1500 
15    H5      -2.0662  -35.1073   19.3273 H       1  LIG   0.1522   0.1500 
16    C9      -0.4670  -36.5450   19.2400 C.ar    1  LIG   0.4373   0.1600 
17    H6      -0.5947  -36.7554   18.1915 H       1  LIG   0.0280   0.1500 
18    N3       0.5220  -37.2120   19.8740 N.ar    1  LIG  -0.6893  -0.6200 
19    C10      0.7040  -36.9790   21.1800 C.ar    1  LIG   0.6480   0.4100 
20    N4       1.7670  -37.6730   21.8260 N.pl3   1  LIG  -0.6924  -0.3690 
21    C11      2.7540  -36.8570   22.5840 C.ar    1  LIG   0.5805   0.4100 
22    C12      2.9040  -34.5090   25.6010 C.3     1  LIG  -0.0620   0.1435 
23    H7       2.2235  -33.7630   25.2820 H       1  LIG   0.0570   0.0000 
24    H8       2.4436  -35.1154   26.3371 H       1  LIG   0.0495   0.0000 
25    H9       3.7654  -34.0491   26.0108 H       1  LIG   0.0519   0.0000 
26    O1      -1.2400  -35.9060   23.9770 O.2     1  LIG  -0.6361  -0.5700 
27    C13      2.3440  -38.7570   21.0360 C.3     1  LIG   0.1354   0.0690 
28    H10      3.1238  -38.3754   20.4296 H       1  LIG   0.0981   0.1000 
29    C14      2.9380  -39.8900   21.8010 C.3     1  LIG  -0.1181  -0.2000 
30    H11      3.8890  -40.1268   21.3997 H       1  LIG   0.0732   0.1000 
31    H12      3.0430  -39.6129   22.8177 H       1  LIG   0.0789   0.1000 
32    C15      1.6390  -40.0610   21.0880 C.3     1  LIG  -0.1196  -0.2000 
33    H13      0.6832  -39.9283   21.5242 H       1  LIG   0.0807   0.1000 
34    H14      1.5292  -40.4423   20.1061 H       1  LIG   0.0733   0.1000 
@<TRIPOS>BOND
1     2     1     ar
2     3     2     1
3     4     2     ar
4     5     4     1
5     6     4     ar
6     7     6     ar
7     8     7     1
8     9     8     1
9     10    8     1
10    11    10    1
11    12    11    ar
12    13    12    1
13    14    12    ar
14    15    14    1
15    16    14    ar
16    17    16    1
17    18    16    ar
18    19    11    ar
19    19    18    ar
20    20    19    1
21    21    1     ar
22    21    7     ar
23    21    20    1
24    22    6     1
25    23    22    1
26    24    22    1
27    25    22    1
28    26    10    2
29    27    20    1
30    28    27    1
31    29    27    1
32    30    29    1
33    31    29    1
34    32    27    1
35    32    29    1
36    33    32    1
37    34    32    1
@<TRIPOS>SUBSTRUCTURE
1   LIG    1    
 
########## Name        : 1VRT.lig
########## Description : AM1BCC_CHARGES =  -0.0002 ORIGINAL_CHARGES =  -0.0000

@<TRIPOS>MOLECULE
1VRT.lig
34    37    1     0     0    
SMALL
USER_CHARGES
@<TRIPOS>ATOM
1     N1       4.0540  -36.9310   22.2210 N.ar    1  LIG  -0.6650  -0.6200 
2     C1       4.9660  -36.2380   22.9390 C.ar    1  LIG   0.3947   0.1600 
3     H1       6.0082  -36.2811   22.6707 H       1  LIG   0.0281   0.1500 
4     C2       4.6240  -35.4500   24.0360 C.ar    1  LIG  -0.2334  -0.1500 
5     H2       5.3884  -34.9151   24.5740 H       1  LIG   0.1480   0.1500 
6     C3       3.3050  -35.3690   24.4150 C.ar    1  LIG  -0.0698  -0.1435 
7     C4       2.3460  -36.0770   23.6860 C.ar    1  LIG  -0.0398   0.1170 
8     N2       0.9890  -36.0280   24.1030 N.am    1  LIG  -0.4596  -0.5470 
9     H3       0.7643  -35.9928   25.0860 H       1  LIG   0.3311   0.3700 
10    C5      -0.1450  -36.0180   23.4080 C.2     1  LIG   0.7361   0.5438 
11    C6      -0.1190  -36.0770   21.8860 C.ar    1  LIG  -0.2550   0.0862 
12    C7      -1.1230  -35.3990   21.1890 C.ar    1  LIG  -0.0321  -0.1500 
13    H4      -1.7552  -34.6955   21.7041 H       1  LIG   0.1623   0.1500 
14    C8      -1.2960  -35.6300   19.8690 C.ar    1  LIG  -0.2723  -0.1500 
15    H5      -2.0662  -35.1073   19.3273 H       1  LIG   0.1522   0.1500 
16    C9      -0.4670  -36.5450   19.2400 C.ar    1  LIG   0.4373   0.1600 
17    H6      -0.5947  -36.7554   18.1915 H       1  LIG   0.0280   0.1500 
18    N3       0.5220  -37.2120   19.8740 N.ar    1  LIG  -0.6893  -0.6200 
19    C10      0.7040  -36.9790   21.1800 C.ar    1  LIG   0.6480   0.4100 
20    N4       1.7670  -37.6730   21.8260 N.pl3   1  LIG  -0.6924  -0.3690 
21    C11      2.7540  -36.8570   22.5840 C.ar    1  LIG   0.5805   0.4100 
22    C12      2.9040  -34.5090   25.6010 C.3     1  LIG  -0.0620   0.1435 
23    H7       2.2235  -33.7630   25.2820 H       1  LIG   0.0570   0.0000 
24    H8       2.4436  -35.1154   26.3371 H       1  LIG   0.0495   0.0000 
25    H9       3.7654  -34.0491   26.0108 H       1  LIG   0.0519   0.0000 
26    O1      -1.2400  -35.9060   23.9770 O.2     1  LIG  -0.6361  -0.5700 
27    C13      2.3440  -38.7570   21.0360 C.3     1  LIG   0.1354   0.0690 
28    H10      3.1238  -38.3754   20.4296 H       1  LIG   0.0981   0.1000 
29    C14      2.9380  -39.8900   21.8010 C.3     1  LIG  -0.1181  -0.2000 
30    H11      3.8890  -40.1268   21.3997 H       1  LIG   0.0732   0.1000 
31    H12      3.0430  -39.6129   22.8177 H       1  LIG   0.0789   0.1000 
32    C15      1.6390  -40.0610   21.0880 C.3     1  LIG  -0.1196  -0.2000 
33    H13      0.6832  -39.9283   21.5242 H       1  LIG   0.0807   0.1000 
34    H14      1.5292  -40.4423   20.1061 H       1  LIG   0.0733   0.1000 
@<TRIPOS>BOND
1     2     1     ar
2     3     2     1
3     4     2     ar
4     5     4     1
5     6     4     ar
6     7     6     ar
7     8     7     1
8     9     8     1
9     10    8     1
10    11    10    1
11    12    11    ar
12    13    12    1
13    14    12    ar
14    15    14    1
15    16    14    ar
16    17    16    1
17    18    16    ar
18    19    11    ar
19    19    18    ar
20    20    19    1
21    21    1     ar
22    21    7     ar
23    21    20    1
24    22    6     1
25    23    22    1
26    24    22    1
27    25    22    1
28    26    10    2
29    27    20    1
30    28    27    1
31    29    27    1
32    30    29    1
33    31    29    1
34    32    27    1
35    32    29    1
36    33    32    1
37    34    32    1
@<TRIPOS>SUBSTRUCTURE
1   LIG    1    
 
########## Name        : 1VRT.lig
########## Description : AM1BCC_CHARGES =  -0.0002 ORIGINAL_CHARGES =  -0.0000

@<TRIPOS>MOLECULE
1VRT.lig
34    37    1     0     0    
SMALL
USER_CHARGES
@<TRIPOS>ATOM
1     N1       4.0540  -36.9310   22.2210 N.ar    1  LIG  -0.6650  -0.6200 
2     C1       4.9660  -36.2380   22.9390 C.ar    1  LIG   0.3947   0.1600 
3     H1       6.0082  -36.2811   22.6707 H       1  LIG   0.0281   0.1500 
4     C2       4.6240  -35.4500   24.0360 C.ar    1  LIG  -0.2334  -0.1500 
5     H2       5.3884  -34.9151   24.5740 H       1  LIG   0.1480   0.1500 
6     C3       3.3050  -35.3690   24.4150 C.ar    1  LIG  -0.0698  -0.1435 
7     C4       2.3460  -36.0770   23.6860 C.ar    1  LIG  -0.0398   0.1170 
8     N2       0.9890  -36.0280   24.1030 N.am    1  LIG  -0.4596  -0.5470 
9     H3       0.7643  -35.9928   25.0860 H       1  LIG   0.3311   0.3700 
10    C5      -0.1450  -36.0180   23.4080 C.2     1  LIG   0.7361   0.5438 
11    C6      -0.1190  -36.0770   21.8860 C.ar    1  LIG  -0.2550   0.0862 
12    C7      -1.1230  -35.3990   21.1890 C.ar    1  LIG  -0.0321  -0.1500 
13    H4      -1.7552  -34.6955   21.7041 H       1  LIG   0.1623   0.1500 
14    C8      -1.2960  -35.6300   19.8690 C.ar    1  LIG  -0.2723  -0.1500 
15    H5      -2.0662  -35.1073   19.3273 H       1  LIG   0.1522   0.1500 
16    C9      -0.4670  -36.5450   19.2400 C.ar    1  LIG   0.4373   0.1600 
17    H6      -0.5947  -36.7554   18.1915 H       1  LIG   0.0280   0.1500 
18    N3       0.5220  -37.2120   19.8740 N.ar    1  LIG  -0.6893  -0.6200 
19    C10      0.7040  -36.9790   21.1800 C.ar    1  LIG   0.6480   0.4100 
20    N4       1.7670  -37.6730   21.8260 N.pl3   1  LIG  -0.6924  -0.3690 
21    C11      2.7540  -36.8570   22.5840 C.ar    1  LIG   0.5805   0.4100 
22    C12      2.9040  -34.5090   25.6010 C.3     1  LIG  -0.0620   0.1435 
23    H7       2.2235  -33.7630   25.2820 H       1  LIG   0.0570   0.0000 
24    H8       2.4436  -35.1154   26.3371 H       1  LIG   0.0495   0.0000 
25    H9       3.7654  -34.0491   26.0108 H       1  LIG   0.0519   0.0000 
26    O1      -1.2400  -35.9060   23.9770 O.2     1  LIG  -0.6361  -0.5700 
27    C13      2.3440  -38.7570   21.0360 C.3     1  LIG   0.1354   0.0690 
28    H10      3.1238  -38.3754   20.4296 H       1  LIG   0.0981   0.1000 
29    C14      2.9380  -39.8900   21.8010 C.3     1  LIG  -0.1181  -0.2000 
30    H11      3.8890  -40.1268   21.3997 H       1  LIG   0.0732   0.1000 
31    H12      3.0430  -39.6129   22.8177 H       1  LIG   0.0789   0.1000 
32    C15      1.6390  -40.0610   21.0880 C.3     1  LIG  -0.1196  -0.2000 
33    H13      0.6832  -39.9283   21.5242 H       1  LIG   0.0807   0.1000 
34    H14      1.5292  -40.4423   20.1061 H       1  LIG   0.0733   0.1000 
@<TRIPOS>BOND
1     2     1     ar
2     3     2     1
3     4     2     ar
4     5     4     1
5     6     4     ar
6     7     6     ar
7     8     7     1
8     9     8     1
9     10    8     1
10    11    10    1
11    12    11    ar
12    13    12    1
13    14    12    ar
14    15    14    1
15    16    14    ar
16    17    16    1
17    18    16    ar
18    19    11    ar
19    19    18    ar
20    20    19    1
21    21    1     ar
22    21    7     ar
23    21    20    1
24    22    6     1
25    23    22    1
26    24    22    1
27    25    22    1
28    26    10    2
29    27    20    1
30    28    27    1
31    29    27    1
32    30    29    1
33    31    29    1
34    32    27    1
35    32    29    1
36    33    32    1
37    34    32    1
@<TRIPOS>SUBSTRUCTURE
1   LIG    1    
 
########## Name        : 1VRT.lig
########## Description : AM1BCC_CHARGES =  -0.0002 ORIGINAL_CHARGES =  -0.0000

@<TRIPOS>MOLECULE
1VRT.lig
34    37    1     0     0    
SMALL
USER_CHARGES
@<TRIPOS>ATOM
1     N1       4.0540  -36.9310   22.2210 N.ar    1  LIG  -0.6650  -0.6200 
2     C1       4.9660  -36.2380   22.9390 C.ar    1  LIG   0.3947   0.1600 
3     H1       6.0082  -36.2811   22.6707 H       1  LIG   0.0281   0.1500 
4     C2       4.6240  -35.4500   24.0360 C.ar    1  LIG  -0.2334  -0.1500 
5     H2       5.3884  -34.9151   24.5740 H       1  LIG   0.1480   0.1500 
6     C3       3.3050  -35.3690   24.4150 C.ar    1  LIG  -0.0698  -0.1435 
7     C4       2.3460  -36.0770   23.6860 C.ar    1  LIG  -0.0398   0.1170 
8     N2       0.9890  -36.0280   24.1030 N.am    1  LIG  -0.4596  -0.5470 
9     H3       0.7643  -35.9928   25.0860 H       1  LIG   0.3311   0.3700 
10    C5      -0.1450  -36.0180   23.4080 C.2     1  LIG   0.7361   0.5438 
11    C6      -0.1190  -36.0770   21.8860 C.ar    1  LIG  -0.2550   0.0862 
12    C7      -1.1230  -35.3990   21.1890 C.ar    1  LIG  -0.0321  -0.1500 
13    H4      -1.7552  -34.6955   21.7041 H       1  LIG   0.1623   0.1500 
14    C8      -1.2960  -35.6300   19.8690 C.ar    1  LIG  -0.2723  -0.1500 
15    H5      -2.0662  -35.1073   19.3273 H       1  LIG   0.1522   0.1500 
16    C9      -0.4670  -36.5450   19.2400 C.ar    1  LIG   0.4373   0.1600 
17    H6      -0.5947  -36.7554   18.1915 H       1  LIG   0.0280   0.1500 
18    N3       0.5220  -37.2120   19.8740 N.ar    1  LIG  -0.6893  -0.6200 
19    C10      0.7040  -36.9790   21.1800 C.ar    1  LIG   0.6480   0.4100 
20    N4       1.7670  -37.6730   21.8260 N.pl3   1  LIG  -0.6924  -0.3690 
21    C11      2.7540  -36.8570   22.5840 C.ar    1  LIG   0.5805   0.4100 
22    C12      2.9040  -34.5090   25.6010 C.3     1  LIG  -0.0620   0.1435 
23    H7       2.2235  -33.7630   25.2820 H       1  LIG   0.0570   0.0000 
24    H8       2.4436  -35.1154   26.3371 H       1  LIG   0.0495   0.0000 
25    H9       3.7654  -34.0491   26.0108 H       1  LIG   0.0519   0.0000 
26    O1      -1.2400  -35.9060   23.9770 O.2     1  LIG  -0.6361  -0.5700 
27    C13      2.3440  -38.7570   21.0360 C.3     1  LIG   0.1354   0.0690 
28    H10      3.1238  -38.3754   20.4296 H       1  LIG   0.0981   0.1000 
29    C14      2.9380  -39.8900   21.8010 C.3     1  LIG  -0.1181  -0.2000 
30    H11      3.8890  -40.1268   21.3997 H       1  LIG   0.0732   0.1000 
31    H12      3.0430  -39.6129   22.8177 H       1  LIG   0.0789   0.1000 
32    C15      1.6390  -40.0610   21.0880 C.3     1  LIG  -0.1196  -0.2000 
33    H13      0.6832  -39.9283   21.5242 H       1  LIG   0.0807   0.1000 
34    H14      1.5292  -40.4423   20.1061 H       1  LIG   0.0733   0.1000 
@<TRIPOS>BOND
1     2     1     ar
2     3     2     1
3     4     2     ar
4     5     4     1
5     6     4     ar
6     7     6     ar
7     8     7     1
8     9     8     1
9     10    8     1
10    11    10    1
11    12    11    ar
12    13    12    1
13    14    12    ar
14    15    14    1
15    16    14    ar
16    17    16    1
17    18    16    ar
18    19    11    ar
19    19    18    ar
20    20    19    1
21    21    1     ar
22    21    7     ar
23    21    20    1
24    22    6     1
25    23    22    1
26    24    22    1
27    25    22    1
28    26    10    2
29    27    20    1
30    28    27    1
31    29    27    1
32    30    29    1
33    31    29    1
34    32    27    1
35    32    29    1
36    33    32    1
37    34    32    1
@<TRIPOS>SUBSTRUCTURE
1   LIG    1    
 
########## Name        : 1VRT.lig
########## Description : AM1BCC_CHARGES =  -0.0002 ORIGINAL_CHARGES =  -0.0000

@<TRIPOS>MOLECULE
1VRT.lig
34    37    1     0     0    
SMALL
USER_CHARGES
@<TRIPOS>ATOM
1     N1       4.0540  -36.9310   22.2210 N.ar    1  LIG  -0.6650  -0.6200 
2     C1       4.9660  -36.2380   22.9390 C.ar    1  LIG   0.3947   0.1600 
3     H1       6.0082  -36.2811   22.6707 H       1  LIG   0.0281   0.1500 
4     C2       4.6240  -35.4500   24.0360 C.ar    1  LIG  -0.2334  -0.1500 
5     H2       5.3884  -34.9151   24.5740 H       1  LIG   0.1480   0.1500 
6     C3       3.3050  -35.3690   24.4150 C.ar    1  LIG  -0.0698  -0.1435 
7     C4       2.3460  -36.0770   23.6860 C.ar    1  LIG  -0.0398   0.1170 
8     N2       0.9890  -36.0280   24.1030 N.am    1  LIG  -0.4596  -0.5470 
9     H3       0.7643  -35.9928   25.0860 H       1  LIG   0.3311   0.3700 
10    C5      -0.1450  -36.0180   23.4080 C.2     1  LIG   0.7361   0.5438 
11    C6      -0.1190  -36.0770   21.8860 C.ar    1  LIG  -0.2550   0.0862 
12    C7      -1.1230  -35.3990   21.1890 C.ar    1  LIG  -0.0321  -0.1500 
13    H4      -1.7552  -34.6955   21.7041 H       1  LIG   0.1623   0.1500 
14    C8      -1.2960  -35.6300   19.8690 C.ar    1  LIG  -0.2723  -0.1500 
15    H5      -2.0662  -35.1073   19.3273 H       1  LIG   0.1522   0.1500 
16    C9      -0.4670  -36.5450   19.2400 C.ar    1  LIG   0.4373   0.1600 
17    H6      -0.5947  -36.7554   18.1915 H       1  LIG   0.0280   0.1500 
18    N3       0.5220  -37.2120   19.8740 N.ar    1  LIG  -0.6893  -0.6200 
19    C10      0.7040  -36.9790   21.1800 C.ar    1  LIG   0.6480   0.4100 
20    N4       1.7670  -37.6730   21.8260 N.pl3   1  LIG  -0.6924  -0.3690 
21    C11      2.7540  -36.8570   22.5840 C.ar    1  LIG   0.5805   0.4100 
22    C12      2.9040  -34.5090   25.6010 C.3     1  LIG  -0.0620   0.1435 
23    H7       2.2235  -33.7630   25.2820 H       1  LIG   0.0570   0.0000 
24    H8       2.4436  -35.1154   26.3371 H       1  LIG   0.0495   0.0000 
25    H9       3.7654  -34.0491   26.0108 H       1  LIG   0.0519   0.0000 
26    O1      -1.2400  -35.9060   23.9770 O.2     1  LIG  -0.6361  -0.5700 
27    C13      2.3440  -38.7570   21.0360 C.3     1  LIG   0.1354   0.0690 
28    H10      3.1238  -38.3754   20.4296 H       1  LIG   0.0981   0.1000 
29    C14      2.9380  -39.8900   21.8010 C.3     1  LIG  -0.1181  -0.2000 
30    H11      3.8890  -40.1268   21.3997 H       1  LIG   0.0732   0.1000 
31    H12      3.0430  -39.6129   22.8177 H       1  LIG   0.0789   0.1000 
32    C15      1.6390  -40.0610   21.0880 C.3     1  LIG  -0.1196  -0.2000 
33    H13      0.6832  -39.9283   21.5242 H       1  LIG   0.0807   0.1000 
34    H14      1.5292  -40.4423   20.1061 H       1  LIG   0.0733   0.1000 
@<TRIPOS>BOND
1     2     1     ar
2     3     2     1
3     4     2     ar
4     5     4     1
5     6     4     ar
6     7     6     ar
7     8     7     1
8     9     8     1
9     10    8     1
10    11    10    1
11    12    11    ar
12    13    12    1
13    14    12    ar
14    15    14    1
15    16    14    ar
16    17    16    1
17    18    16    ar
18    19    11    ar
19    19    18    ar
20    20    19    1
21    21    1     ar
22    21    7     ar
23    21    20    1
24    22    6     1
25    23    22    1
26    24    22    1
27    25    22    1
28    26    10    2
29    27    20    1
30    28    27    1
31    29    27    1
32    30    29    1
33    31    29    1
34    32    27    1
35    32    29    1
36    33    32    1
37    34    32    1
@<TRIPOS>SUBSTRUCTURE
1   LIG    1    
 
########## Name        : 1VRT.lig
########## Description : AM1BCC_CHARGES =  -0.0002 ORIGINAL_CHARGES =  -0.0000

@<TRIPOS>MOLECULE
1VRT.lig
34    37    1     0     0    
SMALL
USER_CHARGES
@<TRIPOS>ATOM
1     N1       4.0540  -36.9310   22.2210 N.ar    1  LIG  -0.6650  -0.6200 
2     C1       4.9660  -36.2380   22.9390 C.ar    1  LIG   0.3947   0.1600 
3     H1       6.0082  -36.2811   22.6707 H       1  LIG   0.0281   0.1500 
4     C2       4.6240  -35.4500   24.0360 C.ar    1  LIG  -0.2334  -0.1500 
5     H2       5.3884  -34.9151   24.5740 H       1  LIG   0.1480   0.1500 
6     C3       3.3050  -35.3690   24.4150 C.ar    1  LIG  -0.0698  -0.1435 
7     C4       2.3460  -36.0770   23.6860 C.ar    1  LIG  -0.0398   0.1170 
8     N2       0.9890  -36.0280   24.1030 N.am    1  LIG  -0.4596  -0.5470 
9     H3       0.7643  -35.9928   25.0860 H       1  LIG   0.3311   0.3700 
10    C5      -0.1450  -36.0180   23.4080 C.2     1  LIG   0.7361   0.5438 
11    C6      -0.1190  -36.0770   21.8860 C.ar    1  LIG  -0.2550   0.0862 
12    C7      -1.1230  -35.3990   21.1890 C.ar    1  LIG  -0.0321  -0.1500 
13    H4      -1.7552  -34.6955   21.7041 H       1  LIG   0.1623   0.1500 
14    C8      -1.2960  -35.6300   19.8690 C.ar    1  LIG  -0.2723  -0.1500 
15    H5      -2.0662  -35.1073   19.3273 H       1  LIG   0.1522   0.1500 
16    C9      -0.4670  -36.5450   19.2400 C.ar    1  LIG   0.4373   0.1600 
17    H6      -0.5947  -36.7554   18.1915 H       1  LIG   0.0280   0.1500 
18    N3       0.5220  -37.2120   19.8740 N.ar    1  LIG  -0.6893  -0.6200 
19    C10      0.7040  -36.9790   21.1800 C.ar    1  LIG   0.6480   0.4100 
20    N4       1.7670  -37.6730   21.8260 N.pl3   1  LIG  -0.6924  -0.3690 
21    C11      2.7540  -36.8570   22.5840 C.ar    1  LIG   0.5805   0.4100 
22    C12      2.9040  -34.5090   25.6010 C.3     1  LIG  -0.0620   0.1435 
23    H7       2.2235  -33.7630   25.2820 H       1  LIG   0.0570   0.0000 
24    H8       2.4436  -35.1154   26.3371 H       1  LIG   0.0495   0.0000 
25    H9       3.7654  -34.0491   26.0108 H       1  LIG   0.0519   0.0000 
26    O1      -1.2400  -35.9060   23.9770 O.2     1  LIG  -0.6361  -0.5700 
27    C13      2.3440  -38.7570   21.0360 C.3     1  LIG   0.1354   0.0690 
28    H10      3.1238  -38.3754   20.4296 H       1  LIG   0.0981   0.1000 
29    C14      2.9380  -39.8900   21.8010 C.3     1  LIG  -0.1181  -0.2000 
30    H11      3.8890  -40.1268   21.3997 H       1  LIG   0.0732   0.1000 
31    H12      3.0430  -39.6129   22.8177 H       1  LIG   0.0789   0.1000 
32    C15      1.6390  -40.0610   21.0880 C.3     1  LIG  -0.1196  -0.2000 
33    H13      0.6832  -39.9283   21.5242 H       1  LIG   0.0807   0.1000 
34    H14      1.5292  -40.4423   20.1061 H       1  LIG   0.0733   0.1000 
@<TRIPOS>BOND
1     2     1     ar
2     3     2     1
3     4     2     ar
4     5     4     1
5     6     4     ar
6     7     6     ar
7     8     7     1
8     9     8     1
9     10    8     1
10    11    10    1
11    12    11    ar
12    13    12    1
13    14    12    ar
14    15    14    1
15    16    14    ar
16    17    16    1
17    18    16    ar
18    19    11    ar
19    19    18    ar
20    20    19    1
21    21    1     ar
22    21    7     ar
23    21    20    1
24    22    6     1
25    23    22    1
26    24    22    1
27    25    22    1
28    26    10    2
29    27    20    1
30    28    27    1
31    29    27    1
32    30    29    1
33    31    29    1
34    32    27    1
35    32    29    1
36    33    32    1
37    34    32    1
@<TRIPOS>SUBSTRUCTURE
1   LIG    1    
 
########## Name        : 1VRT.lig
########## Description : AM1BCC_CHARGES =  -0.0002 ORIGINAL_CHARGES =  -0.0000

@<TRIPOS>MOLECULE
1VRT.lig
34    37    1     0     0    
SMALL
USER_CHARGES
@<TRIPOS>ATOM
1     N1       4.0540  -36.9310   22.2210 N.ar    1  LIG  -0.6650  -0.6200 
2     C1       4.9660  -36.2380   22.9390 C.ar    1  LIG   0.3947   0.1600 
3     H1       6.0082  -36.2811   22.6707 H       1  LIG   0.0281   0.1500 
4     C2       4.6240  -35.4500   24.0360 C.ar    1  LIG  -0.2334  -0.1500 
5     H2       5.3884  -34.9151   24.5740 H       1  LIG   0.1480   0.1500 
6     C3       3.3050  -35.3690   24.4150 C.ar    1  LIG  -0.0698  -0.1435 
7     C4       2.3460  -36.0770   23.6860 C.ar    1  LIG  -0.0398   0.1170 
8     N2       0.9890  -36.0280   24.1030 N.am    1  LIG  -0.4596  -0.5470 
9     H3       0.7643  -35.9928   25.0860 H       1  LIG   0.3311   0.3700 
10    C5      -0.1450  -36.0180   23.4080 C.2     1  LIG   0.7361   0.5438 
11    C6      -0.1190  -36.0770   21.8860 C.ar    1  LIG  -0.2550   0.0862 
12    C7      -1.1230  -35.3990   21.1890 C.ar    1  LIG  -0.0321  -0.1500 
13    H4      -1.7552  -34.6955   21.7041 H       1  LIG   0.1623   0.1500 
14    C8      -1.2960  -35.6300   19.8690 C.ar    1  LIG  -0.2723  -0.1500 
15    H5      -2.0662  -35.1073   19.3273 H       1  LIG   0.1522   0.1500 
16    C9      -0.4670  -36.5450   19.2400 C.ar    1  LIG   0.4373   0.1600 
17    H6      -0.5947  -36.7554   18.1915 H       1  LIG   0.0280   0.1500 
18    N3       0.5220  -37.2120   19.8740 N.ar    1  LIG  -0.6893  -0.6200 
19    C10      0.7040  -36.9790   21.1800 C.ar    1  LIG   0.6480   0.4100 
20    N4       1.7670  -37.6730   21.8260 N.pl3   1  LIG  -0.6924  -0.3690 
21    C11      2.7540  -36.8570   22.5840 C.ar    1  LIG   0.5805   0.4100 
22    C12      2.9040  -34.5090   25.6010 C.3     1  LIG  -0.0620   0.1435 
23    H7       2.2235  -33.7630   25.2820 H       1  LIG   0.0570   0.0000 
24    H8       2.4436  -35.1154   26.3371 H       1  LIG   0.0495   0.0000 
25    H9       3.7654  -34.0491   26.0108 H       1  LIG   0.0519   0.0000 
26    O1      -1.2400  -35.9060   23.9770 O.2     1  LIG  -0.6361  -0.5700 
27    C13      2.3440  -38.7570   21.0360 C.3     1  LIG   0.1354   0.0690 
28    H10      3.1238  -38.3754   20.4296 H       1  LIG   0.0981   0.1000 
29    C14      2.9380  -39.8900   21.8010 C.3     1  LIG  -0.1181  -0.2000 
30    H11      3.8890  -40.1268   21.3997 H       1  LIG   0.0732   0.1000 
31    H12      3.0430  -39.6129   22.8177 H       1  LIG   0.0789   0.1000 
32    C15      1.6390  -40.0610   21.0880 C.3     1  LIG  -0.1196  -0.2000 
33    H13      0.6832  -39.9283   21.5242 H       1  LIG   0.0807   0.1000 
34    H14      1.5292  -40.4423   20.1061 H       1  LIG   0.0733   0.1000 
@<TRIPOS>BOND
1     2     1     ar
2     3     2     1
3     4     2     ar
4     5     4     1
5     6     4     ar
6     7     6     ar
7     8     7     1
8     9     8     1
9     10    8     1
10    11    10    1
11    12    11    ar
12    13    12    1
13    14    12    ar
14    15    14    1
15    16    14    ar
16    17    16    1
17    18    16    ar
18    19    11    ar
19    19    18    ar
20    20    19    1
21    21    1     ar
22    21    7     ar
23    21    20    1
24    22    6     1
25    23    22    1
26    24    22    1
27    25    22    1
28    26    10    2
29    27    20    1
30    28    27    1
31    29    27    1
32    30    29    1
33    31    29    1
34    32    27    1
35    32    29    1
36    33    32    1
37    34    32    1
@<TRIPOS>SUBSTRUCTURE
1   LIG    1    
 
########## Name        : 1VRT.lig
########## Description : AM1BCC_CHARGES =  -0.0002 ORIGINAL_CHARGES =  -0.0000

@<TRIPOS>MOLECULE
1VRT.lig
34    37    1     0     0    
SMALL
USER_CHARGES
@<TRIPOS>ATOM
1     N1       4.0540  -36.9310   22.2210 N.ar    1  LIG  -0.6650  -0.6200 
2     C1       4.9660  -36.2380   22.9390 C.ar    1  LIG   0.3947   0.1600 
3     H1       6.0082  -36.2811   22.6707 H       1  LIG   0.0281   0.1500 
4     C2       4.6240  -35.4500   24.0360 C.ar    1  LIG  -0.2334  -0.1500 
5     H2       5.3884  -34.9151   24.5740 H       1  LIG   0.1480   0.1500 
6     C3       3.3050  -35.3690   24.4150 C.ar    1  LIG  -0.0698  -0.1435 
7     C4       2.3460  -36.0770   23.6860 C.ar    1  LIG  -0.0398   0.1170 
8     N2       0.9890  -36.0280   24.1030 N.am    1  LIG  -0.4596  -0.5470 
9     H3       0.7643  -35.9928   25.0860 H       1  LIG   0.3311   0.3700 
10    C5      -0.1450  -36.0180   23.4080 C.2     1  LIG   0.7361   0.5438 
11    C6      -0.1190  -36.0770   21.8860 C.ar    1  LIG  -0.2550   0.0862 
12    C7      -1.1230  -35.3990   21.1890 C.ar    1  LIG  -0.0321  -0.1500 
13    H4      -1.7552  -34.6955   21.7041 H       1  LIG   0.1623   0.1500 
14    C8      -1.2960  -35.6300   19.8690 C.ar    1  LIG  -0.2723  -0.1500 
15    H5      -2.0662  -35.1073   19.3273 H       1  LIG   0.1522   0.1500 
16    C9      -0.4670  -36.5450   19.2400 C.ar    1  LIG   0.4373   0.1600 
17    H6      -0.5947  -36.7554   18.1915 H       1  LIG   0.0280   0.1500 
18    N3       0.5220  -37.2120   19.8740 N.ar    1  LIG  -0.6893  -0.6200 
19    C10      0.7040  -36.9790   21.1800 C.ar    1  LIG   0.6480   0.4100 
20    N4       1.7670  -37.6730   21.8260 N.pl3   1  LIG  -0.6924  -0.3690 
21    C11      2.7540  -36.8570   22.5840 C.ar    1  LIG   0.5805   0.4100 
22    C12      2.9040  -34.5090   25.6010 C.3     1  LIG  -0.0620   0.1435 
23    H7       2.2235  -33.7630   25.2820 H       1  LIG   0.0570   0.0000 
24    H8       2.4436  -35.1154   26.3371 H       1  LIG   0.0495   0.0000 
25    H9       3.7654  -34.0491   26.0108 H       1  LIG   0.0519   0.0000 
26    O1      -1.2400  -35.9060   23.9770 O.2     1  LIG  -0.6361  -0.5700 
27    C13      2.3440  -38.7570   21.0360 C.3     1  LIG   0.1354   0.0690 
28    H10      3.1238  -38.3754   20.4296 H       1  LIG   0.0981   0.1000 
29    C14      2.9380  -39.8900   21.8010 C.3     1  LIG  -0.1181  -0.2000 
30    H11      3.8890  -40.1268   21.3997 H       1  LIG   0.0732   0.1000 
31    H12      3.0430  -39.6129   22.8177 H       1  LIG   0.0789   0.1000 
32    C15      1.6390  -40.0610   21.0880 C.3     1  LIG  -0.1196  -0.2000 
33    H13      0.6832  -39.9283   21.5242 H       1  LIG   0.0807   0.1000 
34    H14      1.5292  -40.4423   20.1061 H       1  LIG   0.0733   0.1000 
@<TRIPOS>BOND
1     2     1     ar
2     3     2     1
3     4     2     ar
4     5     4     1
5     6     4     ar
6     7     6     ar
7     8     7     1
8     9     8     1
9     10    8     1
10    11    10    1
11    12    11    ar
12    13    12    1
13    14    12    ar
14    15    14    1
15    16    14    ar
16    17    16    1
17    18    16    ar
18    19    11    ar
19    19    18    ar
20    20    19    1
21    21    1     ar
22    21    7     ar
23    21    20    1
24    22    6     1
25    23    22    1
26    24    22    1
27    25    22    1
28    26    10    2
29    27    20    1
30    28    27    1
31    29    27    1
32    30    29    1
33    31    29    1
34    32    27    1
35    32    29    1
36    33    32    1
37    34    32    1
@<TRIPOS>SUBSTRUCTURE
1   LIG    1    
 
########## Name        : 1VRT.lig
########## Description : AM1BCC_CHARGES =  -0.0002 ORIGINAL_CHARGES =  -0.0000

@<TRIPOS>MOLECULE
1VRT.lig
34    37    1     0     0    
SMALL
USER_CHARGES
@<TRIPOS>ATOM
1     N1       4.0540  -36.9310   22.2210 N.ar    1  LIG  -0.6650  -0.6200 
2     C1       4.9660  -36.2380   22.9390 C.ar    1  LIG   0.3947   0.1600 
3     H1       6.0082  -36.2811   22.6707 H       1  LIG   0.0281   0.1500 
4     C2       4.6240  -35.4500   24.0360 C.ar    1  LIG  -0.2334  -0.1500 
5     H2       5.3884  -34.9151   24.5740 H       1  LIG   0.1480   0.1500 
6     C3       3.3050  -35.3690   24.4150 C.ar    1  LIG  -0.0698  -0.1435 
7     C4       2.3460  -36.0770   23.6860 C.ar    1  LIG  -0.0398   0.1170 
8     N2       0.9890  -36.0280   24.1030 N.am    1  LIG  -0.4596  -0.5470 
9     H3       0.7643  -35.9928   25.0860 H       1  LIG   0.3311   0.3700 
10    C5      -0.1450  -36.0180   23.4080 C.2     1  LIG   0.7361   0.5438 
11    C6      -0.1190  -36.0770   21.8860 C.ar    1  LIG  -0.2550   0.0862 
12    C7      -1.1230  -35.3990   21.1890 C.ar    1  LIG  -0.0321  -0.1500 
13    H4      -1.7552  -34.6955   21.7041 H       1  LIG   0.1623   0.1500 
14    C8      -1.2960  -35.6300   19.8690 C.ar    1  LIG  -0.2723  -0.1500 
15    H5      -2.0662  -35.1073   19.3273 H       1  LIG   0.1522   0.1500 
16    C9      -0.4670  -36.5450   19.2400 C.ar    1  LIG   0.4373   0.1600 
17    H6      -0.5947  -36.7554   18.1915 H       1  LIG   0.0280   0.1500 
18    N3       0.5220  -37.2120   19.8740 N.ar    1  LIG  -0.6893  -0.6200 
19    C10      0.7040  -36.9790   21.1800 C.ar    1  LIG   0.6480   0.4100 
20    N4       1.7670  -37.6730   21.8260 N.pl3   1  LIG  -0.6924  -0.3690 
21    C11      2.7540  -36.8570   22.5840 C.ar    1  LIG   0.5805   0.4100 
22    C12      2.9040  -34.5090   25.6010 C.3     1  LIG  -0.0620   0.1435 
23    H7       2.2235  -33.7630   25.2820 H       1  LIG   0.0570   0.0000 
24    H8       2.4436  -35.1154   26.3371 H       1  LIG   0.0495   0.0000 
25    H9       3.7654  -34.0491   26.0108 H       1  LIG   0.0519   0.0000 
26    O1      -1.2400  -35.9060   23.9770 O.2     1  LIG  -0.6361  -0.5700 
27    C13      2.3440  -38.7570   21.0360 C.3     1  LIG   0.1354   0.0690 
28    H10      3.1238  -38.3754   20.4296 H       1  LIG   0.0981   0.1000 
29    C14      2.9380  -39.8900   21.8010 C.3     1  LIG  -0.1181  -0.2000 
30    H11      3.8890  -40.1268   21.3997 H       1  LIG   0.0732   0.1000 
31    H12      3.0430  -39.6129   22.8177 H       1  LIG   0.0789   0.1000 
32    C15      1.6390  -40.0610   21.0880 C.3     1  LIG  -0.1196  -0.2000 
33    H13      0.6832  -39.9283   21.5242 H       1  LIG   0.0807   0.1000 
34    H14      1.5292  -40.4423   20.1061 H       1  LIG   0.0733   0.1000 
@<TRIPOS>BOND
1     2     1     ar
2     3     2     1
3     4     2     ar
4     5     4     1
5     6     4     ar
6     7     6     ar
7     8     7     1
8     9     8     1
9     10    8     1
10    11    10    1
11    12    11    ar
12    13    12    1
13    14    12    ar
14    15    14    1
15    16    14    ar
16    17    16    1
17    18    16    ar
18    19    11    ar
19    19    18    ar
20    20    19    1
21    21    1     ar
22    21    7     ar
23    21    20    1
24    22    6     1
25    23    22    1
26    24    22    1
27    25    22    1
28    26    10    2
29    27    20    1
30    28    27    1
31    29    27    1
32    30    29    1
33    31    29    1
34    32    27    1
35    32    29    1
36    33    32    1
37    34    32    1
@<TRIPOS>SUBSTRUCTURE
1   LIG    1    
 
########## Name        : 1VRT.lig
########## Description : AM1BCC_CHARGES =  -0.0002 ORIGINAL_CHARGES =  -0.0000

@<TRIPOS>MOLECULE
1VRT.lig
34    37    1     0     0    
SMALL
USER_CHARGES
@<TRIPOS>ATOM
1     N1       4.0540  -36.9310   22.2210 N.ar    1  LIG  -0.6650  -0.6200 
2     C1       4.9660  -36.2380   22.9390 C.ar    1  LIG   0.3947   0.1600 
3     H1       6.0082  -36.2811   22.6707 H       1  LIG   0.0281   0.1500 
4     C2       4.6240  -35.4500   24.0360 C.ar    1  LIG  -0.2334  -0.1500 
5     H2       5.3884  -34.9151   24.5740 H       1  LIG   0.1480   0.1500 
6     C3       3.3050  -35.3690   24.4150 C.ar    1  LIG  -0.0698  -0.1435 
7     C4       2.3460  -36.0770   23.6860 C.ar    1  LIG  -0.0398   0.1170 
8     N2       0.9890  -36.0280   24.1030 N.am    1  LIG  -0.4596  -0.5470 
9     H3       0.7643  -35.9928   25.0860 H       1  LIG   0.3311   0.3700 
10    C5      -0.1450  -36.0180   23.4080 C.2     1  LIG   0.7361   0.5438 
11    C6      -0.1190  -36.0770   21.8860 C.ar    1  LIG  -0.2550   0.0862 
12    C7      -1.1230  -35.3990   21.1890 C.ar    1  LIG  -0.0321  -0.1500 
13    H4      -1.7552  -34.6955   21.7041 H       1  LIG   0.1623   0.1500 
14    C8      -1.2960  -35.6300   19.8690 C.ar    1  LIG  -0.2723  -0.1500 
15    H5      -2.0662  -35.1073   19.3273 H       1  LIG   0.1522   0.1500 
16    C9      -0.4670  -36.5450   19.2400 C.ar    1  LIG   0.4373   0.1600 
17    H6      -0.5947  -36.7554   18.1915 H       1  LIG   0.0280   0.1500 
18    N3       0.5220  -37.2120   19.8740 N.ar    1  LIG  -0.6893  -0.6200 
19    C10      0.7040  -36.9790   21.1800 C.ar    1  LIG   0.6480   0.4100 
20    N4       1.7670  -37.6730   21.8260 N.pl3   1  LIG  -0.6924  -0.3690 
21    C11      2.7540  -36.8570   22.5840 C.ar    1  LIG   0.5805   0.4100 
22    C12      2.9040  -34.5090   25.6010 C.3     1  LIG  -0.0620   0.1435 
23    H7       2.2235  -33.7630   25.2820 H       1  LIG   0.0570   0.0000 
24    H8       2.4436  -35.1154   26.3371 H       1  LIG   0.0495   0.0000 
25    H9       3.7654  -34.0491   26.0108 H       1  LIG   0.0519   0.0000 
26    O1      -1.2400  -35.9060   23.9770 O.2     1  LIG  -0.6361  -0.5700 
27    C13      2.3440  -38.7570   21.0360 C.3     1  LIG   0.1354   0.0690 
28    H10      3.1238  -38.3754   20.4296 H       1  LIG   0.0981   0.1000 
29    C14      2.9380  -39.8900   21.8010 C.3     1  LIG  -0.1181  -0.2000 
30    H11      3.8890  -40.1268   21.3997 H       1  LIG   0.0732   0.1000 
31    H12      3.0430  -39.6129   22.8177 H       1  LIG   0.0789   0.1000 
32    C15      1.6390  -40.0610   21.0880 C.3     1  LIG  -0.1196  -0.2000 
33    H13      0.6832  -39.9283   21.5242 H       1  LIG   0.0807   0.1000 
34    H14      1.5292  -40.4423   20.1061 H       1  LIG   0.0733   0.1000 
@<TRIPOS>BOND
1     2     1     ar
2     3     2     1
3     4     2     ar
4     5     4     1
5     6     4     ar
6     7     6     ar
7     8     7     1
8     9     8     1
9     10    8     1
10    11    10    1
11    12    11    ar
12    13    12    1
13    14    12    ar
14    15    14    1
15    16    14    ar
16    17    16    1
17    18    16    ar
18    19    11    ar
19    19    18    ar
20    20    19    1
21    21    1     ar
22    21    7     ar
23    21    20    1
24    22    6     1
25    23    22    1
26    24    22    1
27    25    22    1
28    26    10    2
29    27    20    1
30    28    27    1
31    29    27    1
32    30    29    1
33    31    29    1
34    32    27    1
35    32    29    1
36    33    32    1
37    34    32    1
@<TRIPOS>SUBSTRUCTURE
1   LIG    1    
 
########## Name        : 1VRT.lig
########## Description : AM1BCC_CHARGES =  -0.0002 ORIGINAL_CHARGES =  -0.0000

@<TRIPOS>MOLECULE
1VRT.lig
34    37    1     0     0    
SMALL
USER_CHARGES
@<TRIPOS>ATOM
1     N1       4.0540  -36.9310   22.2210 N.ar    1  LIG  -0.6650  -0.6200 
2     C1       4.9660  -36.2380   22.9390 C.ar    1  LIG   0.3947   0.1600 
3     H1       6.0082  -36.2811   22.6707 H       1  LIG   0.0281   0.1500 
4     C2       4.6240  -35.4500   24.0360 C.ar    1  LIG  -0.2334  -0.1500 
5     H2       5.3884  -34.9151   24.5740 H       1  LIG   0.1480   0.1500 
6     C3       3.3050  -35.3690   24.4150 C.ar    1  LIG  -0.0698  -0.1435 
7     C4       2.3460  -36.0770   23.6860 C.ar    1  LIG  -0.0398   0.1170 
8     N2       0.9890  -36.0280   24.1030 N.am    1  LIG  -0.4596  -0.5470 
9     H3       0.7643  -35.9928   25.0860 H       1  LIG   0.3311   0.3700 
10    C5      -0.1450  -36.0180   23.4080 C.2     1  LIG   0.7361   0.5438 
11    C6      -0.1190  -36.0770   21.8860 C.ar    1  LIG  -0.2550   0.0862 
12    C7      -1.1230  -35.3990   21.1890 C.ar    1  LIG  -0.0321  -0.1500 
13    H4      -1.7552  -34.6955   21.7041 H       1  LIG   0.1623   0.1500 
14    C8      -1.2960  -35.6300   19.8690 C.ar    1  LIG  -0.2723  -0.1500 
15    H5      -2.0662  -35.1073   19.3273 H       1  LIG   0.1522   0.1500 
16    C9      -0.4670  -36.5450   19.2400 C.ar    1  LIG   0.4373   0.1600 
17    H6      -0.5947  -36.7554   18.1915 H       1  LIG   0.0280   0.1500 
18    N3       0.5220  -37.2120   19.8740 N.ar    1  LIG  -0.6893  -0.6200 
19    C10      0.7040  -36.9790   21.1800 C.ar    1  LIG   0.6480   0.4100 
20    N4       1.7670  -37.6730   21.8260 N.pl3   1  LIG  -0.6924  -0.3690 
21    C11      2.7540  -36.8570   22.5840 C.ar    1  LIG   0.5805   0.4100 
22    C12      2.9040  -34.5090   25.6010 C.3     1  LIG  -0.0620   0.1435 
23    H7       2.2235  -33.7630   25.2820 H       1  LIG   0.0570   0.0000 
24    H8       2.4436  -35.1154   26.3371 H       1  LIG   0.0495   0.0000 
25    H9       3.7654  -34.0491   26.0108 H       1  LIG   0.0519   0.0000 
26    O1      -1.2400  -35.9060   23.9770 O.2     1  LIG  -0.6361  -0.5700 
27    C13      2.3440  -38.7570   21.0360 C.3     1  LIG   0.1354   0.0690 
28    H10      3.1238  -38.3754   20.4296 H       1  LIG   0.0981   0.1000 
29    C14      2.9380  -39.8900   21.8010 C.3     1  LIG  -0.1181  -0.2000 
30    H11      3.8890  -40.1268   21.3997 H       1  LIG   0.0732   0.1000 
31    H12      3.0430  -39.6129   22.8177 H       1  LIG   0.0789   0.1000 
32    C15      1.6390  -40.0610   21.0880 C.3     1  LIG  -0.1196  -0.2000 
33    H13      0.6832  -39.9283   21.5242 H       1  LIG   0.0807   0.1000 
34    H14      1.5292  -40.4423   20.1061 H       1  LIG   0.0733   0.1000 
@<TRIPOS>BOND
1     2     1     ar
2     3     2     1
3     4     2     ar
4     5     4     1
5     6     4     ar
6     7     6     ar
7     8     7     1
8     9     8     1
9     10    8     1
10    11    10    1
11    12    11    ar
12    13    12    1
13    14    12    ar
14    15    14    1
15    16    14    ar
16    17    16    1
17    18    16    ar
18    19    11    ar
19    19    18    ar
20    20    19    1
21    21    1     ar
22    21    7     ar
23    21    20    1
24    22    6     1
25    23    22    1
26    24    22    1
27    25    22    1
28    26    10    2
29    27    20    1
30    28    27    1
31    29    27    1
32    30    29    1
33    31    29    1
34    32    27    1
35    32    29    1
36    33    32    1
37    34    32    1
@<TRIPOS>SUBSTRUCTURE
1   LIG    1    
 
########## Name        : 1VRT.lig
########## Description : AM1BCC_CHARGES =  -0.0002 ORIGINAL_CHARGES =  -0.0000

@<TRIPOS>MOLECULE
1VRT.lig
34    37    1     0     0    
SMALL
USER_CHARGES
@<TRIPOS>ATOM
1     N1       4.0540  -36.9310   22.2210 N.ar    1  LIG  -0.6650  -0.6200 
2     C1       4.9660  -36.2380   22.9390 C.ar    1  LIG   0.3947   0.1600 
3     H1       6.0082  -36.2811   22.6707 H       1  LIG   0.0281   0.1500 
4     C2       4.6240  -35.4500   24.0360 C.ar    1  LIG  -0.2334  -0.1500 
5     H2       5.3884  -34.9151   24.5740 H       1  LIG   0.1480   0.1500 
6     C3       3.3050  -35.3690   24.4150 C.ar    1  LIG  -0.0698  -0.1435 
7     C4       2.3460  -36.0770   23.6860 C.ar    1  LIG  -0.0398   0.1170 
8     N2       0.9890  -36.0280   24.1030 N.am    1  LIG  -0.4596  -0.5470 
9     H3       0.7643  -35.9928   25.0860 H       1  LIG   0.3311   0.3700 
10    C5      -0.1450  -36.0180   23.4080 C.2     1  LIG   0.7361   0.5438 
11    C6      -0.1190  -36.0770   21.8860 C.ar    1  LIG  -0.2550   0.0862 
12    C7      -1.1230  -35.3990   21.1890 C.ar    1  LIG  -0.0321  -0.1500 
13    H4      -1.7552  -34.6955   21.7041 H       1  LIG   0.1623   0.1500 
14    C8      -1.2960  -35.6300   19.8690 C.ar    1  LIG  -0.2723  -0.1500 
15    H5      -2.0662  -35.1073   19.3273 H       1  LIG   0.1522   0.1500 
16    C9      -0.4670  -36.5450   19.2400 C.ar    1  LIG   0.4373   0.1600 
17    H6      -0.5947  -36.7554   18.1915 H       1  LIG   0.0280   0.1500 
18    N3       0.5220  -37.2120   19.8740 N.ar    1  LIG  -0.6893  -0.6200 
19    C10      0.7040  -36.9790   21.1800 C.ar    1  LIG   0.6480   0.4100 
20    N4       1.7670  -37.6730   21.8260 N.pl3   1  LIG  -0.6924  -0.3690 
21    C11      2.7540  -36.8570   22.5840 C.ar    1  LIG   0.5805   0.4100 
22    C12      2.9040  -34.5090   25.6010 C.3     1  LIG  -0.0620   0.1435 
23    H7       2.2235  -33.7630   25.2820 H       1  LIG   0.0570   0.0000 
24    H8       2.4436  -35.1154   26.3371 H       1  LIG   0.0495   0.0000 
25    H9       3.7654  -34.0491   26.0108 H       1  LIG   0.0519   0.0000 
26    O1      -1.2400  -35.9060   23.9770 O.2     1  LIG  -0.6361  -0.5700 
27    C13      2.3440  -38.7570   21.0360 C.3     1  LIG   0.1354   0.0690 
28    H10      3.1238  -38.3754   20.4296 H       1  LIG   0.0981   0.1000 
29    C14      2.9380  -39.8900   21.8010 C.3     1  LIG  -0.1181  -0.2000 
30    H11      3.8890  -40.1268   21.3997 H       1  LIG   0.0732   0.1000 
31    H12      3.0430  -39.6129   22.8177 H       1  LIG   0.0789   0.1000 
32    C15      1.6390  -40.0610   21.0880 C.3     1  LIG  -0.1196  -0.2000 
33    H13      0.6832  -39.9283   21.5242 H       1  LIG   0.0807   0.1000 
34    H14      1.5292  -40.4423   20.1061 H       1  LIG   0.0733   0.1000 
@<TRIPOS>BOND
1     2     1     ar
2     3     2     1
3     4     2     ar
4     5     4     1
5     6     4     ar
6     7     6     ar
7     8     7     1
8     9     8     1
9     10    8     1
10    11    10    1
11    12    11    ar
12    13    12    1
13    14    12    ar
14    15    14    1
15    16    14    ar
16    17    16    1
17    18    16    ar
18    19    11    ar
19    19    18    ar
20    20    19    1
21    21    1     ar
22    21    7     ar
23    21    20    1
24    22    6     1
25    23    22    1
26    24    22    1
27    25    22    1
28    26    10    2
29    27    20    1
30    28    27    1
31    29    27    1
32    30    29    1
33    31    29    1
34    32    27    1
35    32    29    1
36    33    32    1
37    34    32    1
@<TRIPOS>SUBSTRUCTURE
1   LIG    1    
 
########## Name        : 1VRT.lig
########## Description : AM1BCC_CHARGES =  -0.0002 ORIGINAL_CHARGES =  -0.0000

@<TRIPOS>MOLECULE
1VRT.lig
34    37    1     0     0    
SMALL
USER_CHARGES
@<TRIPOS>ATOM
1     N1       4.0540  -36.9310   22.2210 N.ar    1  LIG  -0.6650  -0.6200 
2     C1       4.9660  -36.2380   22.9390 C.ar    1  LIG   0.3947   0.1600 
3     H1       6.0082  -36.2811   22.6707 H       1  LIG   0.0281   0.1500 
4     C2       4.6240  -35.4500   24.0360 C.ar    1  LIG  -0.2334  -0.1500 
5     H2       5.3884  -34.9151   24.5740 H       1  LIG   0.1480   0.1500 
6     C3       3.3050  -35.3690   24.4150 C.ar    1  LIG  -0.0698  -0.1435 
7     C4       2.3460  -36.0770   23.6860 C.ar    1  LIG  -0.0398   0.1170 
8     N2       0.9890  -36.0280   24.1030 N.am    1  LIG  -0.4596  -0.5470 
9     H3       0.7643  -35.9928   25.0860 H       1  LIG   0.3311   0.3700 
10    C5      -0.1450  -36.0180   23.4080 C.2     1  LIG   0.7361   0.5438 
11    C6      -0.1190  -36.0770   21.8860 C.ar    1  LIG  -0.2550   0.0862 
12    C7      -1.1230  -35.3990   21.1890 C.ar    1  LIG  -0.0321  -0.1500 
13    H4      -1.7552  -34.6955   21.7041 H       1  LIG   0.1623   0.1500 
14    C8      -1.2960  -35.6300   19.8690 C.ar    1  LIG  -0.2723  -0.1500 
15    H5      -2.0662  -35.1073   19.3273 H       1  LIG   0.1522   0.1500 
16    C9      -0.4670  -36.5450   19.2400 C.ar    1  LIG   0.4373   0.1600 
17    H6      -0.5947  -36.7554   18.1915 H       1  LIG   0.0280   0.1500 
18    N3       0.5220  -37.2120   19.8740 N.ar    1  LIG  -0.6893  -0.6200 
19    C10      0.7040  -36.9790   21.1800 C.ar    1  LIG   0.6480   0.4100 
20    N4       1.7670  -37.6730   21.8260 N.pl3   1  LIG  -0.6924  -0.3690 
21    C11      2.7540  -36.8570   22.5840 C.ar    1  LIG   0.5805   0.4100 
22    C12      2.9040  -34.5090   25.6010 C.3     1  LIG  -0.0620   0.1435 
23    H7       2.2235  -33.7630   25.2820 H       1  LIG   0.0570   0.0000 
24    H8       2.4436  -35.1154   26.3371 H       1  LIG   0.0495   0.0000 
25    H9       3.7654  -34.0491   26.0108 H       1  LIG   0.0519   0.0000 
26    O1      -1.2400  -35.9060   23.9770 O.2     1  LIG  -0.6361  -0.5700 
27    C13      2.3440  -38.7570   21.0360 C.3     1  LIG   0.1354   0.0690 
28    H10      3.1238  -38.3754   20.4296 H       1  LIG   0.0981   0.1000 
29    C14      2.9380  -39.8900   21.8010 C.3     1  LIG  -0.1181  -0.2000 
30    H11      3.8890  -40.1268   21.3997 H       1  LIG   0.0732   0.1000 
31    H12      3.0430  -39.6129   22.8177 H       1  LIG   0.0789   0.1000 
32    C15      1.6390  -40.0610   21.0880 C.3     1  LIG  -0.1196  -0.2000 
33    H13      0.6832  -39.9283   21.5242 H       1  LIG   0.0807   0.1000 
34    H14      1.5292  -40.4423   20.1061 H       1  LIG   0.0733   0.1000 
@<TRIPOS>BOND
1     2     1     ar
2     3     2     1
3     4     2     ar
4     5     4     1
5     6     4     ar
6     7     6     ar
7     8     7     1
8     9     8     1
9     10    8     1
10    11    10    1
11    12    11    ar
12    13    12    1
13    14    12    ar
14    15    14    1
15    16    14    ar
16    17    16    1
17    18    16    ar
18    19    11    ar
19    19    18    ar
20    20    19    1
21    21    1     ar
22    21    7     ar
23    21    20    1
24    22    6     1
25    23    22    1
26    24    22    1
27    25    22    1
28    26    10    2
29    27    20    1
30    28    27    1
31    29    27    1
32    30    29    1
33    31    29    1
34    32    27    1
35    32    29    1
36    33    32    1
37    34    32    1
@<TRIPOS>SUBSTRUCTURE
1   LIG    1    
 
########## Name        : 1VRT.lig
########## Description : AM1BCC_CHARGES =  -0.0002 ORIGINAL_CHARGES =  -0.0000

@<TRIPOS>MOLECULE
1VRT.lig
34    37    1     0     0    
SMALL
USER_CHARGES
@<TRIPOS>ATOM
1     N1       4.0540  -36.9310   22.2210 N.ar    1  LIG  -0.6650  -0.6200 
2     C1       4.9660  -36.2380   22.9390 C.ar    1  LIG   0.3947   0.1600 
3     H1       6.0082  -36.2811   22.6707 H       1  LIG   0.0281   0.1500 
4     C2       4.6240  -35.4500   24.0360 C.ar    1  LIG  -0.2334  -0.1500 
5     H2       5.3884  -34.9151   24.5740 H       1  LIG   0.1480   0.1500 
6     C3       3.3050  -35.3690   24.4150 C.ar    1  LIG  -0.0698  -0.1435 
7     C4       2.3460  -36.0770   23.6860 C.ar    1  LIG  -0.0398   0.1170 
8     N2       0.9890  -36.0280   24.1030 N.am    1  LIG  -0.4596  -0.5470 
9     H3       0.7643  -35.9928   25.0860 H       1  LIG   0.3311   0.3700 
10    C5      -0.1450  -36.0180   23.4080 C.2     1  LIG   0.7361   0.5438 
11    C6      -0.1190  -36.0770   21.8860 C.ar    1  LIG  -0.2550   0.0862 
12    C7      -1.1230  -35.3990   21.1890 C.ar    1  LIG  -0.0321  -0.1500 
13    H4      -1.7552  -34.6955   21.7041 H       1  LIG   0.1623   0.1500 
14    C8      -1.2960  -35.6300   19.8690 C.ar    1  LIG  -0.2723  -0.1500 
15    H5      -2.0662  -35.1073   19.3273 H       1  LIG   0.1522   0.1500 
16    C9      -0.4670  -36.5450   19.2400 C.ar    1  LIG   0.4373   0.1600 
17    H6      -0.5947  -36.7554   18.1915 H       1  LIG   0.0280   0.1500 
18    N3       0.5220  -37.2120   19.8740 N.ar    1  LIG  -0.6893  -0.6200 
19    C10      0.7040  -36.9790   21.1800 C.ar    1  LIG   0.6480   0.4100 
20    N4       1.7670  -37.6730   21.8260 N.pl3   1  LIG  -0.6924  -0.3690 
21    C11      2.7540  -36.8570   22.5840 C.ar    1  LIG   0.5805   0.4100 
22    C12      2.9040  -34.5090   25.6010 C.3     1  LIG  -0.0620   0.1435 
23    H7       2.2235  -33.7630   25.2820 H       1  LIG   0.0570   0.0000 
24    H8       2.4436  -35.1154   26.3371 H       1  LIG   0.0495   0.0000 
25    H9       3.7654  -34.0491   26.0108 H       1  LIG   0.0519   0.0000 
26    O1      -1.2400  -35.9060   23.9770 O.2     1  LIG  -0.6361  -0.5700 
27    C13      2.3440  -38.7570   21.0360 C.3     1  LIG   0.1354   0.0690 
28    H10      3.1238  -38.3754   20.4296 H       1  LIG   0.0981   0.1000 
29    C14      2.9380  -39.8900   21.8010 C.3     1  LIG  -0.1181  -0.2000 
30    H11      3.8890  -40.1268   21.3997 H       1  LIG   0.0732   0.1000 
31    H12      3.0430  -39.6129   22.8177 H       1  LIG   0.0789   0.1000 
32    C15      1.6390  -40.0610   21.0880 C.3     1  LIG  -0.1196  -0.2000 
33    H13      0.6832  -39.9283   21.5242 H       1  LIG   0.0807   0.1000 
34    H14      1.5292  -40.4423   20.1061 H       1  LIG   0.0733   0.1000 
@<TRIPOS>BOND
1     2     1     ar
2     3     2     1
3     4     2     ar
4     5     4     1
5     6     4     ar
6     7     6     ar
7     8     7     1
8     9     8     1
9     10    8     1
10    11    10    1
11    12    11    ar
12    13    12    1
13    14    12    ar
14    15    14    1
15    16    14    ar
16    17    16    1
17    18    16    ar
18    19    11    ar
19    19    18    ar
20    20    19    1
21    21    1     ar
22    21    7     ar
23    21    20    1
24    22    6     1
25    23    22    1
26    24    22    1
27    25    22    1
28    26    10    2
29    27    20    1
30    28    27    1
31    29    27    1
32    30    29    1
33    31    29    1
34    32    27    1
35    32    29    1
36    33    32    1
37    34    32    1
@<TRIPOS>SUBSTRUCTURE
1   LIG    1    
 
########## Name        : 1VRT.lig
########## Description : AM1BCC_CHARGES =  -0.0002 ORIGINAL_CHARGES =  -0.0000

@<TRIPOS>MOLECULE
1VRT.lig
34    37    1     0     0    
SMALL
USER_CHARGES
@<TRIPOS>ATOM
1     N1       4.0540  -36.9310   22.2210 N.ar    1  LIG  -0.6650  -0.6200 
2     C1       4.9660  -36.2380   22.9390 C.ar    1  LIG   0.3947   0.1600 
3     H1       6.0082  -36.2811   22.6707 H       1  LIG   0.0281   0.1500 
4     C2       4.6240  -35.4500   24.0360 C.ar    1  LIG  -0.2334  -0.1500 
5     H2       5.3884  -34.9151   24.5740 H       1  LIG   0.1480   0.1500 
6     C3       3.3050  -35.3690   24.4150 C.ar    1  LIG  -0.0698  -0.1435 
7     C4       2.3460  -36.0770   23.6860 C.ar    1  LIG  -0.0398   0.1170 
8     N2       0.9890  -36.0280   24.1030 N.am    1  LIG  -0.4596  -0.5470 
9     H3       0.7643  -35.9928   25.0860 H       1  LIG   0.3311   0.3700 
10    C5      -0.1450  -36.0180   23.4080 C.2     1  LIG   0.7361   0.5438 
11    C6      -0.1190  -36.0770   21.8860 C.ar    1  LIG  -0.2550   0.0862 
12    C7      -1.1230  -35.3990   21.1890 C.ar    1  LIG  -0.0321  -0.1500 
13    H4      -1.7552  -34.6955   21.7041 H       1  LIG   0.1623   0.1500 
14    C8      -1.2960  -35.6300   19.8690 C.ar    1  LIG  -0.2723  -0.1500 
15    H5      -2.0662  -35.1073   19.3273 H       1  LIG   0.1522   0.1500 
16    C9      -0.4670  -36.5450   19.2400 C.ar    1  LIG   0.4373   0.1600 
17    H6      -0.5947  -36.7554   18.1915 H       1  LIG   0.0280   0.1500 
18    N3       0.5220  -37.2120   19.8740 N.ar    1  LIG  -0.6893  -0.6200 
19    C10      0.7040  -36.9790   21.1800 C.ar    1  LIG   0.6480   0.4100 
20    N4       1.7670  -37.6730   21.8260 N.pl3   1  LIG  -0.6924  -0.3690 
21    C11      2.7540  -36.8570   22.5840 C.ar    1  LIG   0.5805   0.4100 
22    C12      2.9040  -34.5090   25.6010 C.3     1  LIG  -0.0620   0.1435 
23    H7       2.2235  -33.7630   25.2820 H       1  LIG   0.0570   0.0000 
24    H8       2.4436  -35.1154   26.3371 H       1  LIG   0.0495   0.0000 
25    H9       3.7654  -34.0491   26.0108 H       1  LIG   0.0519   0.0000 
26    O1      -1.2400  -35.9060   23.9770 O.2     1  LIG  -0.6361  -0.5700 
27    C13      2.3440  -38.7570   21.0360 C.3     1  LIG   0.1354   0.0690 
28    H10      3.1238  -38.3754   20.4296 H       1  LIG   0.0981   0.1000 
29    C14      2.9380  -39.8900   21.8010 C.3     1  LIG  -0.1181  -0.2000 
30    H11      3.8890  -40.1268   21.3997 H       1  LIG   0.0732   0.1000 
31    H12      3.0430  -39.6129   22.8177 H       1  LIG   0.0789   0.1000 
32    C15      1.6390  -40.0610   21.0880 C.3     1  LIG  -0.1196  -0.2000 
33    H13      0.6832  -39.9283   21.5242 H       1  LIG   0.0807   0.1000 
34    H14      1.5292  -40.4423   20.1061 H       1  LIG   0.0733   0.1000 
@<TRIPOS>BOND
1     2     1     ar
2     3     2     1
3     4     2     ar
4     5     4     1
5     6     4     ar
6     7     6     ar
7     8     7     1
8     9     8     1
9     10    8     1
10    11    10    1
11    12    11    ar
12    13    12    1
13    14    12    ar
14    15    14    1
15    16    14    ar
16    17    16    1
17    18    16    ar
18    19    11    ar
19    19    18    ar
20    20    19    1
21    21    1     ar
22    21    7     ar
23    21    20    1
24    22    6     1
25    23    22    1
26    24    22    1
27    25    22    1
28    26    10    2
29    27    20    1
30    28    27    1
31    29    27    1
32    30    29    1
33    31    29    1
34    32    27    1
35    32    29    1
36    33    32    1
37    34    32    1
@<TRIPOS>SUBSTRUCTURE
1   LIG    1    
 
########## Name        : 1VRT.lig
########## Description : AM1BCC_CHARGES =  -0.0002 ORIGINAL_CHARGES =  -0.0000

@<TRIPOS>MOLECULE
1VRT.lig
34    37    1     0     0    
SMALL
USER_CHARGES
@<TRIPOS>ATOM
1     N1       4.0540  -36.9310   22.2210 N.ar    1  LIG  -0.6650  -0.6200 
2     C1       4.9660  -36.2380   22.9390 C.ar    1  LIG   0.3947   0.1600 
3     H1       6.0082  -36.2811   22.6707 H       1  LIG   0.0281   0.1500 
4     C2       4.6240  -35.4500   24.0360 C.ar    1  LIG  -0.2334  -0.1500 
5     H2       5.3884  -34.9151   24.5740 H       1  LIG   0.1480   0.1500 
6     C3       3.3050  -35.3690   24.4150 C.ar    1  LIG  -0.0698  -0.1435 
7     C4       2.3460  -36.0770   23.6860 C.ar    1  LIG  -0.0398   0.1170 
8     N2       0.9890  -36.0280   24.1030 N.am    1  LIG  -0.4596  -0.5470 
9     H3       0.7643  -35.9928   25.0860 H       1  LIG   0.3311   0.3700 
10    C5      -0.1450  -36.0180   23.4080 C.2     1  LIG   0.7361   0.5438 
11    C6      -0.1190  -36.0770   21.8860 C.ar    1  LIG  -0.2550   0.0862 
12    C7      -1.1230  -35.3990   21.1890 C.ar    1  LIG  -0.0321  -0.1500 
13    H4      -1.7552  -34.6955   21.7041 H       1  LIG   0.1623   0.1500 
14    C8      -1.2960  -35.6300   19.8690 C.ar    1  LIG  -0.2723  -0.1500 
15    H5      -2.0662  -35.1073   19.3273 H       1  LIG   0.1522   0.1500 
16    C9      -0.4670  -36.5450   19.2400 C.ar    1  LIG   0.4373   0.1600 
17    H6      -0.5947  -36.7554   18.1915 H       1  LIG   0.0280   0.1500 
18    N3       0.5220  -37.2120   19.8740 N.ar    1  LIG  -0.6893  -0.6200 
19    C10      0.7040  -36.9790   21.1800 C.ar    1  LIG   0.6480   0.4100 
20    N4       1.7670  -37.6730   21.8260 N.pl3   1  LIG  -0.6924  -0.3690 
21    C11      2.7540  -36.8570   22.5840 C.ar    1  LIG   0.5805   0.4100 
22    C12      2.9040  -34.5090   25.6010 C.3     1  LIG  -0.0620   0.1435 
23    H7       2.2235  -33.7630   25.2820 H       1  LIG   0.0570   0.0000 
24    H8       2.4436  -35.1154   26.3371 H       1  LIG   0.0495   0.0000 
25    H9       3.7654  -34.0491   26.0108 H       1  LIG   0.0519   0.0000 
26    O1      -1.2400  -35.9060   23.9770 O.2     1  LIG  -0.6361  -0.5700 
27    C13      2.3440  -38.7570   21.0360 C.3     1  LIG   0.1354   0.0690 
28    H10      3.1238  -38.3754   20.4296 H       1  LIG   0.0981   0.1000 
29    C14      2.9380  -39.8900   21.8010 C.3     1  LIG  -0.1181  -0.2000 
30    H11      3.8890  -40.1268   21.3997 H       1  LIG   0.0732   0.1000 
31    H12      3.0430  -39.6129   22.8177 H       1  LIG   0.0789   0.1000 
32    C15      1.6390  -40.0610   21.0880 C.3     1  LIG  -0.1196  -0.2000 
33    H13      0.6832  -39.9283   21.5242 H       1  LIG   0.0807   0.1000 
34    H14      1.5292  -40.4423   20.1061 H       1  LIG   0.0733   0.1000 
@<TRIPOS>BOND
1     2     1     ar
2     3     2     1
3     4     2     ar
4     5     4     1
5     6     4     ar
6     7     6     ar
7     8     7     1
8     9     8     1
9     10    8     1
10    11    10    1
11    12    11    ar
12    13    12    1
13    14    12    ar
14    15    14    1
15    16    14    ar
16    17    16    1
17    18    16    ar
18    19    11    ar
19    19    18    ar
20    20    19    1
21    21    1     ar
22    21    7     ar
23    21    20    1
24    22    6     1
25    23    22    1
26    24    22    1
27    25    22    1
28    26    10    2
29    27    20    1
30    28    27    1
31    29    27    1
32    30    29    1
33    31    29    1
34    32    27    1
35    32    29    1
36    33    32    1
37    34    32    1
@<TRIPOS>SUBSTRUCTURE
1   LIG    1    
 
########## Name        : 1VRT.lig
########## Description : AM1BCC_CHARGES =  -0.0002 ORIGINAL_CHARGES =  -0.0000

@<TRIPOS>MOLECULE
1VRT.lig
34    37    1     0     0    
SMALL
USER_CHARGES
@<TRIPOS>ATOM
1     N1       4.0540  -36.9310   22.2210 N.ar    1  LIG  -0.6650  -0.6200 
2     C1       4.9660  -36.2380   22.9390 C.ar    1  LIG   0.3947   0.1600 
3     H1       6.0082  -36.2811   22.6707 H       1  LIG   0.0281   0.1500 
4     C2       4.6240  -35.4500   24.0360 C.ar    1  LIG  -0.2334  -0.1500 
5     H2       5.3884  -34.9151   24.5740 H       1  LIG   0.1480   0.1500 
6     C3       3.3050  -35.3690   24.4150 C.ar    1  LIG  -0.0698  -0.1435 
7     C4       2.3460  -36.0770   23.6860 C.ar    1  LIG  -0.0398   0.1170 
8     N2       0.9890  -36.0280   24.1030 N.am    1  LIG  -0.4596  -0.5470 
9     H3       0.7643  -35.9928   25.0860 H       1  LIG   0.3311   0.3700 
10    C5      -0.1450  -36.0180   23.4080 C.2     1  LIG   0.7361   0.5438 
11    C6      -0.1190  -36.0770   21.8860 C.ar    1  LIG  -0.2550   0.0862 
12    C7      -1.1230  -35.3990   21.1890 C.ar    1  LIG  -0.0321  -0.1500 
13    H4      -1.7552  -34.6955   21.7041 H       1  LIG   0.1623   0.1500 
14    C8      -1.2960  -35.6300   19.8690 C.ar    1  LIG  -0.2723  -0.1500 
15    H5      -2.0662  -35.1073   19.3273 H       1  LIG   0.1522   0.1500 
16    C9      -0.4670  -36.5450   19.2400 C.ar    1  LIG   0.4373   0.1600 
17    H6      -0.5947  -36.7554   18.1915 H       1  LIG   0.0280   0.1500 
18    N3       0.5220  -37.2120   19.8740 N.ar    1  LIG  -0.6893  -0.6200 
19    C10      0.7040  -36.9790   21.1800 C.ar    1  LIG   0.6480   0.4100 
20    N4       1.7670  -37.6730   21.8260 N.pl3   1  LIG  -0.6924  -0.3690 
21    C11      2.7540  -36.8570   22.5840 C.ar    1  LIG   0.5805   0.4100 
22    C12      2.9040  -34.5090   25.6010 C.3     1  LIG  -0.0620   0.1435 
23    H7       2.2235  -33.7630   25.2820 H       1  LIG   0.0570   0.0000 
24    H8       2.4436  -35.1154   26.3371 H       1  LIG   0.0495   0.0000 
25    H9       3.7654  -34.0491   26.0108 H       1  LIG   0.0519   0.0000 
26    O1      -1.2400  -35.9060   23.9770 O.2     1  LIG  -0.6361  -0.5700 
27    C13      2.3440  -38.7570   21.0360 C.3     1  LIG   0.1354   0.0690 
28    H10      3.1238  -38.3754   20.4296 H       1  LIG   0.0981   0.1000 
29    C14      2.9380  -39.8900   21.8010 C.3     1  LIG  -0.1181  -0.2000 
30    H11      3.8890  -40.1268   21.3997 H       1  LIG   0.0732   0.1000 
31    H12      3.0430  -39.6129   22.8177 H       1  LIG   0.0789   0.1000 
32    C15      1.6390  -40.0610   21.0880 C.3     1  LIG  -0.1196  -0.2000 
33    H13      0.6832  -39.9283   21.5242 H       1  LIG   0.0807   0.1000 
34    H14      1.5292  -40.4423   20.1061 H       1  LIG   0.0733   0.1000 
@<TRIPOS>BOND
1     2     1     ar
2     3     2     1
3     4     2     ar
4     5     4     1
5     6     4     ar
6     7     6     ar
7     8     7     1
8     9     8     1
9     10    8     1
10    11    10    1
11    12    11    ar
12    13    12    1
13    14    12    ar
14    15    14    1
15    16    14    ar
16    17    16    1
17    18    16    ar
18    19    11    ar
19    19    18    ar
20    20    19    1
21    21    1     ar
22    21    7     ar
23    21    20    1
24    22    6     1
25    23    22    1
26    24    22    1
27    25    22    1
28    26    10    2
29    27    20    1
30    28    27    1
31    29    27    1
32    30    29    1
33    31    29    1
34    32    27    1
35    32    29    1
36    33    32    1
37    34    32    1
@<TRIPOS>SUBSTRUCTURE
1   LIG    1    
 
########## Name        : 1VRT.lig
########## Description : AM1BCC_CHARGES =  -0.0002 ORIGINAL_CHARGES =  -0.0000

@<TRIPOS>MOLECULE
1VRT.lig
34    37    1     0     0    
SMALL
USER_CHARGES
@<TRIPOS>ATOM
1     N1       4.0540  -36.9310   22.2210 N.ar    1  LIG  -0.6650  -0.6200 
2     C1       4.9660  -36.2380   22.9390 C.ar    1  LIG   0.3947   0.1600 
3     H1       6.0082  -36.2811   22.6707 H       1  LIG   0.0281   0.1500 
4     C2       4.6240  -35.4500   24.0360 C.ar    1  LIG  -0.2334  -0.1500 
5     H2       5.3884  -34.9151   24.5740 H       1  LIG   0.1480   0.1500 
6     C3       3.3050  -35.3690   24.4150 C.ar    1  LIG  -0.0698  -0.1435 
7     C4       2.3460  -36.0770   23.6860 C.ar    1  LIG  -0.0398   0.1170 
8     N2       0.9890  -36.0280   24.1030 N.am    1  LIG  -0.4596  -0.5470 
9     H3       0.7643  -35.9928   25.0860 H       1  LIG   0.3311   0.3700 
10    C5      -0.1450  -36.0180   23.4080 C.2     1  LIG   0.7361   0.5438 
11    C6      -0.1190  -36.0770   21.8860 C.ar    1  LIG  -0.2550   0.0862 
12    C7      -1.1230  -35.3990   21.1890 C.ar    1  LIG  -0.0321  -0.1500 
13    H4      -1.7552  -34.6955   21.7041 H       1  LIG   0.1623   0.1500 
14    C8      -1.2960  -35.6300   19.8690 C.ar    1  LIG  -0.2723  -0.1500 
15    H5      -2.0662  -35.1073   19.3273 H       1  LIG   0.1522   0.1500 
16    C9      -0.4670  -36.5450   19.2400 C.ar    1  LIG   0.4373   0.1600 
17    H6      -0.5947  -36.7554   18.1915 H       1  LIG   0.0280   0.1500 
18    N3       0.5220  -37.2120   19.8740 N.ar    1  LIG  -0.6893  -0.6200 
19    C10      0.7040  -36.9790   21.1800 C.ar    1  LIG   0.6480   0.4100 
20    N4       1.7670  -37.6730   21.8260 N.pl3   1  LIG  -0.6924  -0.3690 
21    C11      2.7540  -36.8570   22.5840 C.ar    1  LIG   0.5805   0.4100 
22    C12      2.9040  -34.5090   25.6010 C.3     1  LIG  -0.0620   0.1435 
23    H7       2.2235  -33.7630   25.2820 H       1  LIG   0.0570   0.0000 
24    H8       2.4436  -35.1154   26.3371 H       1  LIG   0.0495   0.0000 
25    H9       3.7654  -34.0491   26.0108 H       1  LIG   0.0519   0.0000 
26    O1      -1.2400  -35.9060   23.9770 O.2     1  LIG  -0.6361  -0.5700 
27    C13      2.3440  -38.7570   21.0360 C.3     1  LIG   0.1354   0.0690 
28    H10      3.1238  -38.3754   20.4296 H       1  LIG   0.0981   0.1000 
29    C14      2.9380  -39.8900   21.8010 C.3     1  LIG  -0.1181  -0.2000 
30    H11      3.8890  -40.1268   21.3997 H       1  LIG   0.0732   0.1000 
31    H12      3.0430  -39.6129   22.8177 H       1  LIG   0.0789   0.1000 
32    C15      1.6390  -40.0610   21.0880 C.3     1  LIG  -0.1196  -0.2000 
33    H13      0.6832  -39.9283   21.5242 H       1  LIG   0.0807   0.1000 
34    H14      1.5292  -40.4423   20.1061 H       1  LIG   0.0733   0.1000 
@<TRIPOS>BOND
1     2     1     ar
2     3     2     1
3     4     2     ar
4     5     4     1
5     6     4     ar
6     7     6     ar
7     8     7     1
8     9     8     1
9     10    8     1
10    11    10    1
11    12    11    ar
12    13    12    1
13    14    12    ar
14    15    14    1
15    16    14    ar
16    17    16    1
17    18    16    ar
18    19    11    ar
19    19    18    ar
20    20    19    1
21    21    1     ar
22    21    7     ar
23    21    20    1
24    22    6     1
25    23    22    1
26    24    22    1
27    25    22    1
28    26    10    2
29    27    20    1
30    28    27    1
31    29    27    1
32    30    29    1
33    31    29    1
34    32    27    1
35    32    29    1
36    33    32    1
37    34    32    1
@<TRIPOS>SUBSTRUCTURE
1   LIG    1    
 
########## Name        : 1VRT.lig
########## Description : AM1BCC_CHARGES =  -0.0002 ORIGINAL_CHARGES =  -0.0000

@<TRIPOS>MOLECULE
1VRT.lig
34    37    1     0     0    
SMALL
USER_CHARGES
@<TRIPOS>ATOM
1     N1       4.0540  -36.9310   22.2210 N.ar    1  LIG  -0.6650  -0.6200 
2     C1       4.9660  -36.2380   22.9390 C.ar    1  LIG   0.3947   0.1600 
3     H1       6.0082  -36.2811   22.6707 H       1  LIG   0.0281   0.1500 
4     C2       4.6240  -35.4500   24.0360 C.ar    1  LIG  -0.2334  -0.1500 
5     H2       5.3884  -34.9151   24.5740 H       1  LIG   0.1480   0.1500 
6     C3       3.3050  -35.3690   24.4150 C.ar    1  LIG  -0.0698  -0.1435 
7     C4       2.3460  -36.0770   23.6860 C.ar    1  LIG  -0.0398   0.1170 
8     N2       0.9890  -36.0280   24.1030 N.am    1  LIG  -0.4596  -0.5470 
9     H3       0.7643  -35.9928   25.0860 H       1  LIG   0.3311   0.3700 
10    C5      -0.1450  -36.0180   23.4080 C.2     1  LIG   0.7361   0.5438 
11    C6      -0.1190  -36.0770   21.8860 C.ar    1  LIG  -0.2550   0.0862 
12    C7      -1.1230  -35.3990   21.1890 C.ar    1  LIG  -0.0321  -0.1500 
13    H4      -1.7552  -34.6955   21.7041 H       1  LIG   0.1623   0.1500 
14    C8      -1.2960  -35.6300   19.8690 C.ar    1  LIG  -0.2723  -0.1500 
15    H5      -2.0662  -35.1073   19.3273 H       1  LIG   0.1522   0.1500 
16    C9      -0.4670  -36.5450   19.2400 C.ar    1  LIG   0.4373   0.1600 
17    H6      -0.5947  -36.7554   18.1915 H       1  LIG   0.0280   0.1500 
18    N3       0.5220  -37.2120   19.8740 N.ar    1  LIG  -0.6893  -0.6200 
19    C10      0.7040  -36.9790   21.1800 C.ar    1  LIG   0.6480   0.4100 
20    N4       1.7670  -37.6730   21.8260 N.pl3   1  LIG  -0.6924  -0.3690 
21    C11      2.7540  -36.8570   22.5840 C.ar    1  LIG   0.5805   0.4100 
22    C12      2.9040  -34.5090   25.6010 C.3     1  LIG  -0.0620   0.1435 
23    H7       2.2235  -33.7630   25.2820 H       1  LIG   0.0570   0.0000 
24    H8       2.4436  -35.1154   26.3371 H       1  LIG   0.0495   0.0000 
25    H9       3.7654  -34.0491   26.0108 H       1  LIG   0.0519   0.0000 
26    O1      -1.2400  -35.9060   23.9770 O.2     1  LIG  -0.6361  -0.5700 
27    C13      2.3440  -38.7570   21.0360 C.3     1  LIG   0.1354   0.0690 
28    H10      3.1238  -38.3754   20.4296 H       1  LIG   0.0981   0.1000 
29    C14      2.9380  -39.8900   21.8010 C.3     1  LIG  -0.1181  -0.2000 
30    H11      3.8890  -40.1268   21.3997 H       1  LIG   0.0732   0.1000 
31    H12      3.0430  -39.6129   22.8177 H       1  LIG   0.0789   0.1000 
32    C15      1.6390  -40.0610   21.0880 C.3     1  LIG  -0.1196  -0.2000 
33    H13      0.6832  -39.9283   21.5242 H       1  LIG   0.0807   0.1000 
34    H14      1.5292  -40.4423   20.1061 H       1  LIG   0.0733   0.1000 
@<TRIPOS>BOND
1     2     1     ar
2     3     2     1
3     4     2     ar
4     5     4     1
5     6     4     ar
6     7     6     ar
7     8     7     1
8     9     8     1
9     10    8     1
10    11    10    1
11    12    11    ar
12    13    12    1
13    14    12    ar
14    15    14    1
15    16    14    ar
16    17    16    1
17    18    16    ar
18    19    11    ar
19    19    18    ar
20    20    19    1
21    21    1     ar
22    21    7     ar
23    21    20    1
24    22    6     1
25    23    22    1
26    24    22    1
27    25    22    1
28    26    10    2
29    27    20    1
30    28    27    1
31    29    27    1
32    30    29    1
33    31    29    1
34    32    27    1
35    32    29    1
36    33    32    1
37    34    32    1
@<TRIPOS>SUBSTRUCTURE
1   LIG    1    
 
########## Name        : 1VRT.lig
########## Description : AM1BCC_CHARGES =  -0.0002 ORIGINAL_CHARGES =  -0.0000

@<TRIPOS>MOLECULE
1VRT.lig
34    37    1     0     0    
SMALL
USER_CHARGES
@<TRIPOS>ATOM
1     N1       4.0540  -36.9310   22.2210 N.ar    1  LIG  -0.6650  -0.6200 
2     C1       4.9660  -36.2380   22.9390 C.ar    1  LIG   0.3947   0.1600 
3     H1       6.0082  -36.2811   22.6707 H       1  LIG   0.0281   0.1500 
4     C2       4.6240  -35.4500   24.0360 C.ar    1  LIG  -0.2334  -0.1500 
5     H2       5.3884  -34.9151   24.5740 H       1  LIG   0.1480   0.1500 
6     C3       3.3050  -35.3690   24.4150 C.ar    1  LIG  -0.0698  -0.1435 
7     C4       2.3460  -36.0770   23.6860 C.ar    1  LIG  -0.0398   0.1170 
8     N2       0.9890  -36.0280   24.1030 N.am    1  LIG  -0.4596  -0.5470 
9     H3       0.7643  -35.9928   25.0860 H       1  LIG   0.3311   0.3700 
10    C5      -0.1450  -36.0180   23.4080 C.2     1  LIG   0.7361   0.5438 
11    C6      -0.1190  -36.0770   21.8860 C.ar    1  LIG  -0.2550   0.0862 
12    C7      -1.1230  -35.3990   21.1890 C.ar    1  LIG  -0.0321  -0.1500 
13    H4      -1.7552  -34.6955   21.7041 H       1  LIG   0.1623   0.1500 
14    C8      -1.2960  -35.6300   19.8690 C.ar    1  LIG  -0.2723  -0.1500 
15    H5      -2.0662  -35.1073   19.3273 H       1  LIG   0.1522   0.1500 
16    C9      -0.4670  -36.5450   19.2400 C.ar    1  LIG   0.4373   0.1600 
17    H6      -0.5947  -36.7554   18.1915 H       1  LIG   0.0280   0.1500 
18    N3       0.5220  -37.2120   19.8740 N.ar    1  LIG  -0.6893  -0.6200 
19    C10      0.7040  -36.9790   21.1800 C.ar    1  LIG   0.6480   0.4100 
20    N4       1.7670  -37.6730   21.8260 N.pl3   1  LIG  -0.6924  -0.3690 
21    C11      2.7540  -36.8570   22.5840 C.ar    1  LIG   0.5805   0.4100 
22    C12      2.9040  -34.5090   25.6010 C.3     1  LIG  -0.0620   0.1435 
23    H7       2.2235  -33.7630   25.2820 H       1  LIG   0.0570   0.0000 
24    H8       2.4436  -35.1154   26.3371 H       1  LIG   0.0495   0.0000 
25    H9       3.7654  -34.0491   26.0108 H       1  LIG   0.0519   0.0000 
26    O1      -1.2400  -35.9060   23.9770 O.2     1  LIG  -0.6361  -0.5700 
27    C13      2.3440  -38.7570   21.0360 C.3     1  LIG   0.1354   0.0690 
28    H10      3.1238  -38.3754   20.4296 H       1  LIG   0.0981   0.1000 
29    C14      2.9380  -39.8900   21.8010 C.3     1  LIG  -0.1181  -0.2000 
30    H11      3.8890  -40.1268   21.3997 H       1  LIG   0.0732   0.1000 
31    H12      3.0430  -39.6129   22.8177 H       1  LIG   0.0789   0.1000 
32    C15      1.6390  -40.0610   21.0880 C.3     1  LIG  -0.1196  -0.2000 
33    H13      0.6832  -39.9283   21.5242 H       1  LIG   0.0807   0.1000 
34    H14      1.5292  -40.4423   20.1061 H       1  LIG   0.0733   0.1000 
@<TRIPOS>BOND
1     2     1     ar
2     3     2     1
3     4     2     ar
4     5     4     1
5     6     4     ar
6     7     6     ar
7     8     7     1
8     9     8     1
9     10    8     1
10    11    10    1
11    12    11    ar
12    13    12    1
13    14    12    ar
14    15    14    1
15    16    14    ar
16    17    16    1
17    18    16    ar
18    19    11    ar
19    19    18    ar
20    20    19    1
21    21    1     ar
22    21    7     ar
23    21    20    1
24    22    6     1
25    23    22    1
26    24    22    1
27    25    22    1
28    26    10    2
29    27    20    1
30    28    27    1
31    29    27    1
32    30    29    1
33    31    29    1
34    32    27    1
35    32    29    1
36    33    32    1
37    34    32    1
@<TRIPOS>SUBSTRUCTURE
1   LIG    1    
 
########## Name        : 1VRT.lig
########## Description : AM1BCC_CHARGES =  -0.0002 ORIGINAL_CHARGES =  -0.0000

@<TRIPOS>MOLECULE
1VRT.lig
34    37    1     0     0    
SMALL
USER_CHARGES
@<TRIPOS>ATOM
1     N1       4.0540  -36.9310   22.2210 N.ar    1  LIG  -0.6650  -0.6200 
2     C1       4.9660  -36.2380   22.9390 C.ar    1  LIG   0.3947   0.1600 
3     H1       6.0082  -36.2811   22.6707 H       1  LIG   0.0281   0.1500 
4     C2       4.6240  -35.4500   24.0360 C.ar    1  LIG  -0.2334  -0.1500 
5     H2       5.3884  -34.9151   24.5740 H       1  LIG   0.1480   0.1500 
6     C3       3.3050  -35.3690   24.4150 C.ar    1  LIG  -0.0698  -0.1435 
7     C4       2.3460  -36.0770   23.6860 C.ar    1  LIG  -0.0398   0.1170 
8     N2       0.9890  -36.0280   24.1030 N.am    1  LIG  -0.4596  -0.5470 
9     H3       0.7643  -35.9928   25.0860 H       1  LIG   0.3311   0.3700 
10    C5      -0.1450  -36.0180   23.4080 C.2     1  LIG   0.7361   0.5438 
11    C6      -0.1190  -36.0770   21.8860 C.ar    1  LIG  -0.2550   0.0862 
12    C7      -1.1230  -35.3990   21.1890 C.ar    1  LIG  -0.0321  -0.1500 
13    H4      -1.7552  -34.6955   21.7041 H       1  LIG   0.1623   0.1500 
14    C8      -1.2960  -35.6300   19.8690 C.ar    1  LIG  -0.2723  -0.1500 
15    H5      -2.0662  -35.1073   19.3273 H       1  LIG   0.1522   0.1500 
16    C9      -0.4670  -36.5450   19.2400 C.ar    1  LIG   0.4373   0.1600 
17    H6      -0.5947  -36.7554   18.1915 H       1  LIG   0.0280   0.1500 
18    N3       0.5220  -37.2120   19.8740 N.ar    1  LIG  -0.6893  -0.6200 
19    C10      0.7040  -36.9790   21.1800 C.ar    1  LIG   0.6480   0.4100 
20    N4       1.7670  -37.6730   21.8260 N.pl3   1  LIG  -0.6924  -0.3690 
21    C11      2.7540  -36.8570   22.5840 C.ar    1  LIG   0.5805   0.4100 
22    C12      2.9040  -34.5090   25.6010 C.3     1  LIG  -0.0620   0.1435 
23    H7       2.2235  -33.7630   25.2820 H       1  LIG   0.0570   0.0000 
24    H8       2.4436  -35.1154   26.3371 H       1  LIG   0.0495   0.0000 
25    H9       3.7654  -34.0491   26.0108 H       1  LIG   0.0519   0.0000 
26    O1      -1.2400  -35.9060   23.9770 O.2     1  LIG  -0.6361  -0.5700 
27    C13      2.3440  -38.7570   21.0360 C.3     1  LIG   0.1354   0.0690 
28    H10      3.1238  -38.3754   20.4296 H       1  LIG   0.0981   0.1000 
29    C14      2.9380  -39.8900   21.8010 C.3     1  LIG  -0.1181  -0.2000 
30    H11      3.8890  -40.1268   21.3997 H       1  LIG   0.0732   0.1000 
31    H12      3.0430  -39.6129   22.8177 H       1  LIG   0.0789   0.1000 
32    C15      1.6390  -40.0610   21.0880 C.3     1  LIG  -0.1196  -0.2000 
33    H13      0.6832  -39.9283   21.5242 H       1  LIG   0.0807   0.1000 
34    H14      1.5292  -40.4423   20.1061 H       1  LIG   0.0733   0.1000 
@<TRIPOS>BOND
1     2     1     ar
2     3     2     1
3     4     2     ar
4     5     4     1
5     6     4     ar
6     7     6     ar
7     8     7     1
8     9     8     1
9     10    8     1
10    11    10    1
11    12    11    ar
12    13    12    1
13    14    12    ar
14    15    14    1
15    16    14    ar
16    17    16    1
17    18    16    ar
18    19    11    ar
19    19    18    ar
20    20    19    1
21    21    1     ar
22    21    7     ar
23    21    20    1
24    22    6     1
25    23    22    1
26    24    22    1
27    25    22    1
28    26    10    2
29    27    20    1
30    28    27    1
31    29    27    1
32    30    29    1
33    31    29    1
34    32    27    1
35    32    29    1
36    33    32    1
37    34    32    1
@<TRIPOS>SUBSTRUCTURE
1   LIG    1    
 
########## Name        : 1VRT.lig
########## Description : AM1BCC_CHARGES =  -0.0002 ORIGINAL_CHARGES =  -0.0000

@<TRIPOS>MOLECULE
1VRT.lig
34    37    1     0     0    
SMALL
USER_CHARGES
@<TRIPOS>ATOM
1     N1       4.0540  -36.9310   22.2210 N.ar    1  LIG  -0.6650  -0.6200 
2     C1       4.9660  -36.2380   22.9390 C.ar    1  LIG   0.3947   0.1600 
3     H1       6.0082  -36.2811   22.6707 H       1  LIG   0.0281   0.1500 
4     C2       4.6240  -35.4500   24.0360 C.ar    1  LIG  -0.2334  -0.1500 
5     H2       5.3884  -34.9151   24.5740 H       1  LIG   0.1480   0.1500 
6     C3       3.3050  -35.3690   24.4150 C.ar    1  LIG  -0.0698  -0.1435 
7     C4       2.3460  -36.0770   23.6860 C.ar    1  LIG  -0.0398   0.1170 
8     N2       0.9890  -36.0280   24.1030 N.am    1  LIG  -0.4596  -0.5470 
9     H3       0.7643  -35.9928   25.0860 H       1  LIG   0.3311   0.3700 
10    C5      -0.1450  -36.0180   23.4080 C.2     1  LIG   0.7361   0.5438 
11    C6      -0.1190  -36.0770   21.8860 C.ar    1  LIG  -0.2550   0.0862 
12    C7      -1.1230  -35.3990   21.1890 C.ar    1  LIG  -0.0321  -0.1500 
13    H4      -1.7552  -34.6955   21.7041 H       1  LIG   0.1623   0.1500 
14    C8      -1.2960  -35.6300   19.8690 C.ar    1  LIG  -0.2723  -0.1500 
15    H5      -2.0662  -35.1073   19.3273 H       1  LIG   0.1522   0.1500 
16    C9      -0.4670  -36.5450   19.2400 C.ar    1  LIG   0.4373   0.1600 
17    H6      -0.5947  -36.7554   18.1915 H       1  LIG   0.0280   0.1500 
18    N3       0.5220  -37.2120   19.8740 N.ar    1  LIG  -0.6893  -0.6200 
19    C10      0.7040  -36.9790   21.1800 C.ar    1  LIG   0.6480   0.4100 
20    N4       1.7670  -37.6730   21.8260 N.pl3   1  LIG  -0.6924  -0.3690 
21    C11      2.7540  -36.8570   22.5840 C.ar    1  LIG   0.5805   0.4100 
22    C12      2.9040  -34.5090   25.6010 C.3     1  LIG  -0.0620   0.1435 
23    H7       2.2235  -33.7630   25.2820 H       1  LIG   0.0570   0.0000 
24    H8       2.4436  -35.1154   26.3371 H       1  LIG   0.0495   0.0000 
25    H9       3.7654  -34.0491   26.0108 H       1  LIG   0.0519   0.0000 
26    O1      -1.2400  -35.9060   23.9770 O.2     1  LIG  -0.6361  -0.5700 
27    C13      2.3440  -38.7570   21.0360 C.3     1  LIG   0.1354   0.0690 
28    H10      3.1238  -38.3754   20.4296 H       1  LIG   0.0981   0.1000 
29    C14      2.9380  -39.8900   21.8010 C.3     1  LIG  -0.1181  -0.2000 
30    H11      3.8890  -40.1268   21.3997 H       1  LIG   0.0732   0.1000 
31    H12      3.0430  -39.6129   22.8177 H       1  LIG   0.0789   0.1000 
32    C15      1.6390  -40.0610   21.0880 C.3     1  LIG  -0.1196  -0.2000 
33    H13      0.6832  -39.9283   21.5242 H       1  LIG   0.0807   0.1000 
34    H14      1.5292  -40.4423   20.1061 H       1  LIG   0.0733   0.1000 
@<TRIPOS>BOND
1     2     1     ar
2     3     2     1
3     4     2     ar
4     5     4     1
5     6     4     ar
6     7     6     ar
7     8     7     1
8     9     8     1
9     10    8     1
10    11    10    1
11    12    11    ar
12    13    12    1
13    14    12    ar
14    15    14    1
15    16    14    ar
16    17    16    1
17    18    16    ar
18    19    11    ar
19    19    18    ar
20    20    19    1
21    21    1     ar
22    21    7     ar
23    21    20    1
24    22    6     1
25    23    22    1
26    24    22    1
27    25    22    1
28    26    10    2
29    27    20    1
30    28    27    1
31    29    27    1
32    30    29    1
33    31    29    1
34    32    27    1
35    32    29    1
36    33    32    1
37    34    32    1
@<TRIPOS>SUBSTRUCTURE
1   LIG    1    
 
########## Name        : 1VRT.lig
########## Description : AM1BCC_CHARGES =  -0.0002 ORIGINAL_CHARGES =  -0.0000

@<TRIPOS>MOLECULE
1VRT.lig
34    37    1     0     0    
SMALL
USER_CHARGES
@<TRIPOS>ATOM
1     N1       4.0540  -36.9310   22.2210 N.ar    1  LIG  -0.6650  -0.6200 
2     C1       4.9660  -36.2380   22.9390 C.ar    1  LIG   0.3947   0.1600 
3     H1       6.0082  -36.2811   22.6707 H       1  LIG   0.0281   0.1500 
4     C2       4.6240  -35.4500   24.0360 C.ar    1  LIG  -0.2334  -0.1500 
5     H2       5.3884  -34.9151   24.5740 H       1  LIG   0.1480   0.1500 
6     C3       3.3050  -35.3690   24.4150 C.ar    1  LIG  -0.0698  -0.1435 
7     C4       2.3460  -36.0770   23.6860 C.ar    1  LIG  -0.0398   0.1170 
8     N2       0.9890  -36.0280   24.1030 N.am    1  LIG  -0.4596  -0.5470 
9     H3       0.7643  -35.9928   25.0860 H       1  LIG   0.3311   0.3700 
10    C5      -0.1450  -36.0180   23.4080 C.2     1  LIG   0.7361   0.5438 
11    C6      -0.1190  -36.0770   21.8860 C.ar    1  LIG  -0.2550   0.0862 
12    C7      -1.1230  -35.3990   21.1890 C.ar    1  LIG  -0.0321  -0.1500 
13    H4      -1.7552  -34.6955   21.7041 H       1  LIG   0.1623   0.1500 
14    C8      -1.2960  -35.6300   19.8690 C.ar    1  LIG  -0.2723  -0.1500 
15    H5      -2.0662  -35.1073   19.3273 H       1  LIG   0.1522   0.1500 
16    C9      -0.4670  -36.5450   19.2400 C.ar    1  LIG   0.4373   0.1600 
17    H6      -0.5947  -36.7554   18.1915 H       1  LIG   0.0280   0.1500 
18    N3       0.5220  -37.2120   19.8740 N.ar    1  LIG  -0.6893  -0.6200 
19    C10      0.7040  -36.9790   21.1800 C.ar    1  LIG   0.6480   0.4100 
20    N4       1.7670  -37.6730   21.8260 N.pl3   1  LIG  -0.6924  -0.3690 
21    C11      2.7540  -36.8570   22.5840 C.ar    1  LIG   0.5805   0.4100 
22    C12      2.9040  -34.5090   25.6010 C.3     1  LIG  -0.0620   0.1435 
23    H7       2.2235  -33.7630   25.2820 H       1  LIG   0.0570   0.0000 
24    H8       2.4436  -35.1154   26.3371 H       1  LIG   0.0495   0.0000 
25    H9       3.7654  -34.0491   26.0108 H       1  LIG   0.0519   0.0000 
26    O1      -1.2400  -35.9060   23.9770 O.2     1  LIG  -0.6361  -0.5700 
27    C13      2.3440  -38.7570   21.0360 C.3     1  LIG   0.1354   0.0690 
28    H10      3.1238  -38.3754   20.4296 H       1  LIG   0.0981   0.1000 
29    C14      2.9380  -39.8900   21.8010 C.3     1  LIG  -0.1181  -0.2000 
30    H11      3.8890  -40.1268   21.3997 H       1  LIG   0.0732   0.1000 
31    H12      3.0430  -39.6129   22.8177 H       1  LIG   0.0789   0.1000 
32    C15      1.6390  -40.0610   21.0880 C.3     1  LIG  -0.1196  -0.2000 
33    H13      0.6832  -39.9283   21.5242 H       1  LIG   0.0807   0.1000 
34    H14      1.5292  -40.4423   20.1061 H       1  LIG   0.0733   0.1000 
@<TRIPOS>BOND
1     2     1     ar
2     3     2     1
3     4     2     ar
4     5     4     1
5     6     4     ar
6     7     6     ar
7     8     7     1
8     9     8     1
9     10    8     1
10    11    10    1
11    12    11    ar
12    13    12    1
13    14    12    ar
14    15    14    1
15    16    14    ar
16    17    16    1
17    18    16    ar
18    19    11    ar
19    19    18    ar
20    20    19    1
21    21    1     ar
22    21    7     ar
23    21    20    1
24    22    6     1
25    23    22    1
26    24    22    1
27    25    22    1
28    26    10    2
29    27    20    1
30    28    27    1
31    29    27    1
32    30    29    1
33    31    29    1
34    32    27    1
35    32    29    1
36    33    32    1
37    34    32    1
@<TRIPOS>SUBSTRUCTURE
1   LIG    1    
 
########## Name        : 1VRT.lig
########## Description : AM1BCC_CHARGES =  -0.0002 ORIGINAL_CHARGES =  -0.0000

@<TRIPOS>MOLECULE
1VRT.lig
34    37    1     0     0    
SMALL
USER_CHARGES
@<TRIPOS>ATOM
1     N1       4.0540  -36.9310   22.2210 N.ar    1  LIG  -0.6650  -0.6200 
2     C1       4.9660  -36.2380   22.9390 C.ar    1  LIG   0.3947   0.1600 
3     H1       6.0082  -36.2811   22.6707 H       1  LIG   0.0281   0.1500 
4     C2       4.6240  -35.4500   24.0360 C.ar    1  LIG  -0.2334  -0.1500 
5     H2       5.3884  -34.9151   24.5740 H       1  LIG   0.1480   0.1500 
6     C3       3.3050  -35.3690   24.4150 C.ar    1  LIG  -0.0698  -0.1435 
7     C4       2.3460  -36.0770   23.6860 C.ar    1  LIG  -0.0398   0.1170 
8     N2       0.9890  -36.0280   24.1030 N.am    1  LIG  -0.4596  -0.5470 
9     H3       0.7643  -35.9928   25.0860 H       1  LIG   0.3311   0.3700 
10    C5      -0.1450  -36.0180   23.4080 C.2     1  LIG   0.7361   0.5438 
11    C6      -0.1190  -36.0770   21.8860 C.ar    1  LIG  -0.2550   0.0862 
12    C7      -1.1230  -35.3990   21.1890 C.ar    1  LIG  -0.0321  -0.1500 
13    H4      -1.7552  -34.6955   21.7041 H       1  LIG   0.1623   0.1500 
14    C8      -1.2960  -35.6300   19.8690 C.ar    1  LIG  -0.2723  -0.1500 
15    H5      -2.0662  -35.1073   19.3273 H       1  LIG   0.1522   0.1500 
16    C9      -0.4670  -36.5450   19.2400 C.ar    1  LIG   0.4373   0.1600 
17    H6      -0.5947  -36.7554   18.1915 H       1  LIG   0.0280   0.1500 
18    N3       0.5220  -37.2120   19.8740 N.ar    1  LIG  -0.6893  -0.6200 
19    C10      0.7040  -36.9790   21.1800 C.ar    1  LIG   0.6480   0.4100 
20    N4       1.7670  -37.6730   21.8260 N.pl3   1  LIG  -0.6924  -0.3690 
21    C11      2.7540  -36.8570   22.5840 C.ar    1  LIG   0.5805   0.4100 
22    C12      2.9040  -34.5090   25.6010 C.3     1  LIG  -0.0620   0.1435 
23    H7       2.2235  -33.7630   25.2820 H       1  LIG   0.0570   0.0000 
24    H8       2.4436  -35.1154   26.3371 H       1  LIG   0.0495   0.0000 
25    H9       3.7654  -34.0491   26.0108 H       1  LIG   0.0519   0.0000 
26    O1      -1.2400  -35.9060   23.9770 O.2     1  LIG  -0.6361  -0.5700 
27    C13      2.3440  -38.7570   21.0360 C.3     1  LIG   0.1354   0.0690 
28    H10      3.1238  -38.3754   20.4296 H       1  LIG   0.0981   0.1000 
29    C14      2.9380  -39.8900   21.8010 C.3     1  LIG  -0.1181  -0.2000 
30    H11      3.8890  -40.1268   21.3997 H       1  LIG   0.0732   0.1000 
31    H12      3.0430  -39.6129   22.8177 H       1  LIG   0.0789   0.1000 
32    C15      1.6390  -40.0610   21.0880 C.3     1  LIG  -0.1196  -0.2000 
33    H13      0.6832  -39.9283   21.5242 H       1  LIG   0.0807   0.1000 
34    H14      1.5292  -40.4423   20.1061 H       1  LIG   0.0733   0.1000 
@<TRIPOS>BOND
1     2     1     ar
2     3     2     1
3     4     2     ar
4     5     4     1
5     6     4     ar
6     7     6     ar
7     8     7     1
8     9     8     1
9     10    8     1
10    11    10    1
11    12    11    ar
12    13    12    1
13    14    12    ar
14    15    14    1
15    16    14    ar
16    17    16    1
17    18    16    ar
18    19    11    ar
19    19    18    ar
20    20    19    1
21    21    1     ar
22    21    7     ar
23    21    20    1
24    22    6     1
25    23    22    1
26    24    22    1
27    25    22    1
28    26    10    2
29    27    20    1
30    28    27    1
31    29    27    1
32    30    29    1
33    31    29    1
34    32    27    1
35    32    29    1
36    33    32    1
37    34    32    1
@<TRIPOS>SUBSTRUCTURE
1   LIG    1    
 
########## Name        : 1VRT.lig
########## Description : AM1BCC_CHARGES =  -0.0002 ORIGINAL_CHARGES =  -0.0000

@<TRIPOS>MOLECULE
1VRT.lig
34    37    1     0     0    
SMALL
USER_CHARGES
@<TRIPOS>ATOM
1     N1       4.0540  -36.9310   22.2210 N.ar    1  LIG  -0.6650  -0.6200 
2     C1       4.9660  -36.2380   22.9390 C.ar    1  LIG   0.3947   0.1600 
3     H1       6.0082  -36.2811   22.6707 H       1  LIG   0.0281   0.1500 
4     C2       4.6240  -35.4500   24.0360 C.ar    1  LIG  -0.2334  -0.1500 
5     H2       5.3884  -34.9151   24.5740 H       1  LIG   0.1480   0.1500 
6     C3       3.3050  -35.3690   24.4150 C.ar    1  LIG  -0.0698  -0.1435 
7     C4       2.3460  -36.0770   23.6860 C.ar    1  LIG  -0.0398   0.1170 
8     N2       0.9890  -36.0280   24.1030 N.am    1  LIG  -0.4596  -0.5470 
9     H3       0.7643  -35.9928   25.0860 H       1  LIG   0.3311   0.3700 
10    C5      -0.1450  -36.0180   23.4080 C.2     1  LIG   0.7361   0.5438 
11    C6      -0.1190  -36.0770   21.8860 C.ar    1  LIG  -0.2550   0.0862 
12    C7      -1.1230  -35.3990   21.1890 C.ar    1  LIG  -0.0321  -0.1500 
13    H4      -1.7552  -34.6955   21.7041 H       1  LIG   0.1623   0.1500 
14    C8      -1.2960  -35.6300   19.8690 C.ar    1  LIG  -0.2723  -0.1500 
15    H5      -2.0662  -35.1073   19.3273 H       1  LIG   0.1522   0.1500 
16    C9      -0.4670  -36.5450   19.2400 C.ar    1  LIG   0.4373   0.1600 
17    H6      -0.5947  -36.7554   18.1915 H       1  LIG   0.0280   0.1500 
18    N3       0.5220  -37.2120   19.8740 N.ar    1  LIG  -0.6893  -0.6200 
19    C10      0.7040  -36.9790   21.1800 C.ar    1  LIG   0.6480   0.4100 
20    N4       1.7670  -37.6730   21.8260 N.pl3   1  LIG  -0.6924  -0.3690 
21    C11      2.7540  -36.8570   22.5840 C.ar    1  LIG   0.5805   0.4100 
22    C12      2.9040  -34.5090   25.6010 C.3     1  LIG  -0.0620   0.1435 
23    H7       2.2235  -33.7630   25.2820 H       1  LIG   0.0570   0.0000 
24    H8       2.4436  -35.1154   26.3371 H       1  LIG   0.0495   0.0000 
25    H9       3.7654  -34.0491   26.0108 H       1  LIG   0.0519   0.0000 
26    O1      -1.2400  -35.9060   23.9770 O.2     1  LIG  -0.6361  -0.5700 
27    C13      2.3440  -38.7570   21.0360 C.3     1  LIG   0.1354   0.0690 
28    H10      3.1238  -38.3754   20.4296 H       1  LIG   0.0981   0.1000 
29    C14      2.9380  -39.8900   21.8010 C.3     1  LIG  -0.1181  -0.2000 
30    H11      3.8890  -40.1268   21.3997 H       1  LIG   0.0732   0.1000 
31    H12      3.0430  -39.6129   22.8177 H       1  LIG   0.0789   0.1000 
32    C15      1.6390  -40.0610   21.0880 C.3     1  LIG  -0.1196  -0.2000 
33    H13      0.6832  -39.9283   21.5242 H       1  LIG   0.0807   0.1000 
34    H14      1.5292  -40.4423   20.1061 H       1  LIG   0.0733   0.1000 
@<TRIPOS>BOND
1     2     1     ar
2     3     2     1
3     4     2     ar
4     5     4     1
5     6     4     ar
6     7     6     ar
7     8     7     1
8     9     8     1
9     10    8     1
10    11    10    1
11    12    11    ar
12    13    12    1
13    14    12    ar
14    15    14    1
15    16    14    ar
16    17    16    1
17    18    16    ar
18    19    11    ar
19    19    18    ar
20    20    19    1
21    21    1     ar
22    21    7     ar
23    21    20    1
24    22    6     1
25    23    22    1
26    24    22    1
27    25    22    1
28    26    10    2
29    27    20    1
30    28    27    1
31    29    27    1
32    30    29    1
33    31    29    1
34    32    27    1
35    32    29    1
36    33    32    1
37    34    32    1
@<TRIPOS>SUBSTRUCTURE
1   LIG    1    
 
########## Name        : 1VRT.lig
########## Description : AM1BCC_CHARGES =  -0.0002 ORIGINAL_CHARGES =  -0.0000

@<TRIPOS>MOLECULE
1VRT.lig
34    37    1     0     0    
SMALL
USER_CHARGES
@<TRIPOS>ATOM
1     N1       4.0540  -36.9310   22.2210 N.ar    1  LIG  -0.6650  -0.6200 
2     C1       4.9660  -36.2380   22.9390 C.ar    1  LIG   0.3947   0.1600 
3     H1       6.0082  -36.2811   22.6707 H       1  LIG   0.0281   0.1500 
4     C2       4.6240  -35.4500   24.0360 C.ar    1  LIG  -0.2334  -0.1500 
5     H2       5.3884  -34.9151   24.5740 H       1  LIG   0.1480   0.1500 
6     C3       3.3050  -35.3690   24.4150 C.ar    1  LIG  -0.0698  -0.1435 
7     C4       2.3460  -36.0770   23.6860 C.ar    1  LIG  -0.0398   0.1170 
8     N2       0.9890  -36.0280   24.1030 N.am    1  LIG  -0.4596  -0.5470 
9     H3       0.7643  -35.9928   25.0860 H       1  LIG   0.3311   0.3700 
10    C5      -0.1450  -36.0180   23.4080 C.2     1  LIG   0.7361   0.5438 
11    C6      -0.1190  -36.0770   21.8860 C.ar    1  LIG  -0.2550   0.0862 
12    C7      -1.1230  -35.3990   21.1890 C.ar    1  LIG  -0.0321  -0.1500 
13    H4      -1.7552  -34.6955   21.7041 H       1  LIG   0.1623   0.1500 
14    C8      -1.2960  -35.6300   19.8690 C.ar    1  LIG  -0.2723  -0.1500 
15    H5      -2.0662  -35.1073   19.3273 H       1  LIG   0.1522   0.1500 
16    C9      -0.4670  -36.5450   19.2400 C.ar    1  LIG   0.4373   0.1600 
17    H6      -0.5947  -36.7554   18.1915 H       1  LIG   0.0280   0.1500 
18    N3       0.5220  -37.2120   19.8740 N.ar    1  LIG  -0.6893  -0.6200 
19    C10      0.7040  -36.9790   21.1800 C.ar    1  LIG   0.6480   0.4100 
20    N4       1.7670  -37.6730   21.8260 N.pl3   1  LIG  -0.6924  -0.3690 
21    C11      2.7540  -36.8570   22.5840 C.ar    1  LIG   0.5805   0.4100 
22    C12      2.9040  -34.5090   25.6010 C.3     1  LIG  -0.0620   0.1435 
23    H7       2.2235  -33.7630   25.2820 H       1  LIG   0.0570   0.0000 
24    H8       2.4436  -35.1154   26.3371 H       1  LIG   0.0495   0.0000 
25    H9       3.7654  -34.0491   26.0108 H       1  LIG   0.0519   0.0000 
26    O1      -1.2400  -35.9060   23.9770 O.2     1  LIG  -0.6361  -0.5700 
27    C13      2.3440  -38.7570   21.0360 C.3     1  LIG   0.1354   0.0690 
28    H10      3.1238  -38.3754   20.4296 H       1  LIG   0.0981   0.1000 
29    C14      2.9380  -39.8900   21.8010 C.3     1  LIG  -0.1181  -0.2000 
30    H11      3.8890  -40.1268   21.3997 H       1  LIG   0.0732   0.1000 
31    H12      3.0430  -39.6129   22.8177 H       1  LIG   0.0789   0.1000 
32    C15      1.6390  -40.0610   21.0880 C.3     1  LIG  -0.1196  -0.2000 
33    H13      0.6832  -39.9283   21.5242 H       1  LIG   0.0807   0.1000 
34    H14      1.5292  -40.4423   20.1061 H       1  LIG   0.0733   0.1000 
@<TRIPOS>BOND
1     2     1     ar
2     3     2     1
3     4     2     ar
4     5     4     1
5     6     4     ar
6     7     6     ar
7     8     7     1
8     9     8     1
9     10    8     1
10    11    10    1
11    12    11    ar
12    13    12    1
13    14    12    ar
14    15    14    1
15    16    14    ar
16    17    16    1
17    18    16    ar
18    19    11    ar
19    19    18    ar
20    20    19    1
21    21    1     ar
22    21    7     ar
23    21    20    1
24    22    6     1
25    23    22    1
26    24    22    1
27    25    22    1
28    26    10    2
29    27    20    1
30    28    27    1
31    29    27    1
32    30    29    1
33    31    29    1
34    32    27    1
35    32    29    1
36    33    32    1
37    34    32    1
@<TRIPOS>SUBSTRUCTURE
1   LIG    1    
 
########## Name        : 1VRT.lig
########## Description : AM1BCC_CHARGES =  -0.0002 ORIGINAL_CHARGES =  -0.0000

@<TRIPOS>MOLECULE
1VRT.lig
34    37    1     0     0    
SMALL
USER_CHARGES
@<TRIPOS>ATOM
1     N1       4.0540  -36.9310   22.2210 N.ar    1  LIG  -0.6650  -0.6200 
2     C1       4.9660  -36.2380   22.9390 C.ar    1  LIG   0.3947   0.1600 
3     H1       6.0082  -36.2811   22.6707 H       1  LIG   0.0281   0.1500 
4     C2       4.6240  -35.4500   24.0360 C.ar    1  LIG  -0.2334  -0.1500 
5     H2       5.3884  -34.9151   24.5740 H       1  LIG   0.1480   0.1500 
6     C3       3.3050  -35.3690   24.4150 C.ar    1  LIG  -0.0698  -0.1435 
7     C4       2.3460  -36.0770   23.6860 C.ar    1  LIG  -0.0398   0.1170 
8     N2       0.9890  -36.0280   24.1030 N.am    1  LIG  -0.4596  -0.5470 
9     H3       0.7643  -35.9928   25.0860 H       1  LIG   0.3311   0.3700 
10    C5      -0.1450  -36.0180   23.4080 C.2     1  LIG   0.7361   0.5438 
11    C6      -0.1190  -36.0770   21.8860 C.ar    1  LIG  -0.2550   0.0862 
12    C7      -1.1230  -35.3990   21.1890 C.ar    1  LIG  -0.0321  -0.1500 
13    H4      -1.7552  -34.6955   21.7041 H       1  LIG   0.1623   0.1500 
14    C8      -1.2960  -35.6300   19.8690 C.ar    1  LIG  -0.2723  -0.1500 
15    H5      -2.0662  -35.1073   19.3273 H       1  LIG   0.1522   0.1500 
16    C9      -0.4670  -36.5450   19.2400 C.ar    1  LIG   0.4373   0.1600 
17    H6      -0.5947  -36.7554   18.1915 H       1  LIG   0.0280   0.1500 
18    N3       0.5220  -37.2120   19.8740 N.ar    1  LIG  -0.6893  -0.6200 
19    C10      0.7040  -36.9790   21.1800 C.ar    1  LIG   0.6480   0.4100 
20    N4       1.7670  -37.6730   21.8260 N.pl3   1  LIG  -0.6924  -0.3690 
21    C11      2.7540  -36.8570   22.5840 C.ar    1  LIG   0.5805   0.4100 
22    C12      2.9040  -34.5090   25.6010 C.3     1  LIG  -0.0620   0.1435 
23    H7       2.2235  -33.7630   25.2820 H       1  LIG   0.0570   0.0000 
24    H8       2.4436  -35.1154   26.3371 H       1  LIG   0.0495   0.0000 
25    H9       3.7654  -34.0491   26.0108 H       1  LIG   0.0519   0.0000 
26    O1      -1.2400  -35.9060   23.9770 O.2     1  LIG  -0.6361  -0.5700 
27    C13      2.3440  -38.7570   21.0360 C.3     1  LIG   0.1354   0.0690 
28    H10      3.1238  -38.3754   20.4296 H       1  LIG   0.0981   0.1000 
29    C14      2.9380  -39.8900   21.8010 C.3     1  LIG  -0.1181  -0.2000 
30    H11      3.8890  -40.1268   21.3997 H       1  LIG   0.0732   0.1000 
31    H12      3.0430  -39.6129   22.8177 H       1  LIG   0.0789   0.1000 
32    C15      1.6390  -40.0610   21.0880 C.3     1  LIG  -0.1196  -0.2000 
33    H13      0.6832  -39.9283   21.5242 H       1  LIG   0.0807   0.1000 
34    H14      1.5292  -40.4423   20.1061 H       1  LIG   0.0733   0.1000 
@<TRIPOS>BOND
1     2     1     ar
2     3     2     1
3     4     2     ar
4     5     4     1
5     6     4     ar
6     7     6     ar
7     8     7     1
8     9     8     1
9     10    8     1
10    11    10    1
11    12    11    ar
12    13    12    1
13    14    12    ar
14    15    14    1
15    16    14    ar
16    17    16    1
17    18    16    ar
18    19    11    ar
19    19    18    ar
20    20    19    1
21    21    1     ar
22    21    7     ar
23    21    20    1
24    22    6     1
25    23    22    1
26    24    22    1
27    25    22    1
28    26    10    2
29    27    20    1
30    28    27    1
31    29    27    1
32    30    29    1
33    31    29    1
34    32    27    1
35    32    29    1
36    33    32    1
37    34    32    1
@<TRIPOS>SUBSTRUCTURE
1   LIG    1    
 
########## Name        : 1VRT.lig
########## Description : AM1BCC_CHARGES =  -0.0002 ORIGINAL_CHARGES =  -0.0000

@<TRIPOS>MOLECULE
1VRT.lig
34    37    1     0     0    
SMALL
USER_CHARGES
@<TRIPOS>ATOM
1     N1       4.0540  -36.9310   22.2210 N.ar    1  LIG  -0.6650  -0.6200 
2     C1       4.9660  -36.2380   22.9390 C.ar    1  LIG   0.3947   0.1600 
3     H1       6.0082  -36.2811   22.6707 H       1  LIG   0.0281   0.1500 
4     C2       4.6240  -35.4500   24.0360 C.ar    1  LIG  -0.2334  -0.1500 
5     H2       5.3884  -34.9151   24.5740 H       1  LIG   0.1480   0.1500 
6     C3       3.3050  -35.3690   24.4150 C.ar    1  LIG  -0.0698  -0.1435 
7     C4       2.3460  -36.0770   23.6860 C.ar    1  LIG  -0.0398   0.1170 
8     N2       0.9890  -36.0280   24.1030 N.am    1  LIG  -0.4596  -0.5470 
9     H3       0.7643  -35.9928   25.0860 H       1  LIG   0.3311   0.3700 
10    C5      -0.1450  -36.0180   23.4080 C.2     1  LIG   0.7361   0.5438 
11    C6      -0.1190  -36.0770   21.8860 C.ar    1  LIG  -0.2550   0.0862 
12    C7      -1.1230  -35.3990   21.1890 C.ar    1  LIG  -0.0321  -0.1500 
13    H4      -1.7552  -34.6955   21.7041 H       1  LIG   0.1623   0.1500 
14    C8      -1.2960  -35.6300   19.8690 C.ar    1  LIG  -0.2723  -0.1500 
15    H5      -2.0662  -35.1073   19.3273 H       1  LIG   0.1522   0.1500 
16    C9      -0.4670  -36.5450   19.2400 C.ar    1  LIG   0.4373   0.1600 
17    H6      -0.5947  -36.7554   18.1915 H       1  LIG   0.0280   0.1500 
18    N3       0.5220  -37.2120   19.8740 N.ar    1  LIG  -0.6893  -0.6200 
19    C10      0.7040  -36.9790   21.1800 C.ar    1  LIG   0.6480   0.4100 
20    N4       1.7670  -37.6730   21.8260 N.pl3   1  LIG  -0.6924  -0.3690 
21    C11      2.7540  -36.8570   22.5840 C.ar    1  LIG   0.5805   0.4100 
22    C12      2.9040  -34.5090   25.6010 C.3     1  LIG  -0.0620   0.1435 
23    H7       2.2235  -33.7630   25.2820 H       1  LIG   0.0570   0.0000 
24    H8       2.4436  -35.1154   26.3371 H       1  LIG   0.0495   0.0000 
25    H9       3.7654  -34.0491   26.0108 H       1  LIG   0.0519   0.0000 
26    O1      -1.2400  -35.9060   23.9770 O.2     1  LIG  -0.6361  -0.5700 
27    C13      2.3440  -38.7570   21.0360 C.3     1  LIG   0.1354   0.0690 
28    H10      3.1238  -38.3754   20.4296 H       1  LIG   0.0981   0.1000 
29    C14      2.9380  -39.8900   21.8010 C.3     1  LIG  -0.1181  -0.2000 
30    H11      3.8890  -40.1268   21.3997 H       1  LIG   0.0732   0.1000 
31    H12      3.0430  -39.6129   22.8177 H       1  LIG   0.0789   0.1000 
32    C15      1.6390  -40.0610   21.0880 C.3     1  LIG  -0.1196  -0.2000 
33    H13      0.6832  -39.9283   21.5242 H       1  LIG   0.0807   0.1000 
34    H14      1.5292  -40.4423   20.1061 H       1  LIG   0.0733   0.1000 
@<TRIPOS>BOND
1     2     1     ar
2     3     2     1
3     4     2     ar
4     5     4     1
5     6     4     ar
6     7     6     ar
7     8     7     1
8     9     8     1
9     10    8     1
10    11    10    1
11    12    11    ar
12    13    12    1
13    14    12    ar
14    15    14    1
15    16    14    ar
16    17    16    1
17    18    16    ar
18    19    11    ar
19    19    18    ar
20    20    19    1
21    21    1     ar
22    21    7     ar
23    21    20    1
24    22    6     1
25    23    22    1
26    24    22    1
27    25    22    1
28    26    10    2
29    27    20    1
30    28    27    1
31    29    27    1
32    30    29    1
33    31    29    1
34    32    27    1
35    32    29    1
36    33    32    1
37    34    32    1
@<TRIPOS>SUBSTRUCTURE
1   LIG    1    
 
########## Name        : 1VRT.lig
########## Description : AM1BCC_CHARGES =  -0.0002 ORIGINAL_CHARGES =  -0.0000

@<TRIPOS>MOLECULE
1VRT.lig
34    37    1     0     0    
SMALL
USER_CHARGES
@<TRIPOS>ATOM
1     N1       4.0540  -36.9310   22.2210 N.ar    1  LIG  -0.6650  -0.6200 
2     C1       4.9660  -36.2380   22.9390 C.ar    1  LIG   0.3947   0.1600 
3     H1       6.0082  -36.2811   22.6707 H       1  LIG   0.0281   0.1500 
4     C2       4.6240  -35.4500   24.0360 C.ar    1  LIG  -0.2334  -0.1500 
5     H2       5.3884  -34.9151   24.5740 H       1  LIG   0.1480   0.1500 
6     C3       3.3050  -35.3690   24.4150 C.ar    1  LIG  -0.0698  -0.1435 
7     C4       2.3460  -36.0770   23.6860 C.ar    1  LIG  -0.0398   0.1170 
8     N2       0.9890  -36.0280   24.1030 N.am    1  LIG  -0.4596  -0.5470 
9     H3       0.7643  -35.9928   25.0860 H       1  LIG   0.3311   0.3700 
10    C5      -0.1450  -36.0180   23.4080 C.2     1  LIG   0.7361   0.5438 
11    C6      -0.1190  -36.0770   21.8860 C.ar    1  LIG  -0.2550   0.0862 
12    C7      -1.1230  -35.3990   21.1890 C.ar    1  LIG  -0.0321  -0.1500 
13    H4      -1.7552  -34.6955   21.7041 H       1  LIG   0.1623   0.1500 
14    C8      -1.2960  -35.6300   19.8690 C.ar    1  LIG  -0.2723  -0.1500 
15    H5      -2.0662  -35.1073   19.3273 H       1  LIG   0.1522   0.1500 
16    C9      -0.4670  -36.5450   19.2400 C.ar    1  LIG   0.4373   0.1600 
17    H6      -0.5947  -36.7554   18.1915 H       1  LIG   0.0280   0.1500 
18    N3       0.5220  -37.2120   19.8740 N.ar    1  LIG  -0.6893  -0.6200 
19    C10      0.7040  -36.9790   21.1800 C.ar    1  LIG   0.6480   0.4100 
20    N4       1.7670  -37.6730   21.8260 N.pl3   1  LIG  -0.6924  -0.3690 
21    C11      2.7540  -36.8570   22.5840 C.ar    1  LIG   0.5805   0.4100 
22    C12      2.9040  -34.5090   25.6010 C.3     1  LIG  -0.0620   0.1435 
23    H7       2.2235  -33.7630   25.2820 H       1  LIG   0.0570   0.0000 
24    H8       2.4436  -35.1154   26.3371 H       1  LIG   0.0495   0.0000 
25    H9       3.7654  -34.0491   26.0108 H       1  LIG   0.0519   0.0000 
26    O1      -1.2400  -35.9060   23.9770 O.2     1  LIG  -0.6361  -0.5700 
27    C13      2.3440  -38.7570   21.0360 C.3     1  LIG   0.1354   0.0690 
28    H10      3.1238  -38.3754   20.4296 H       1  LIG   0.0981   0.1000 
29    C14      2.9380  -39.8900   21.8010 C.3     1  LIG  -0.1181  -0.2000 
30    H11      3.8890  -40.1268   21.3997 H       1  LIG   0.0732   0.1000 
31    H12      3.0430  -39.6129   22.8177 H       1  LIG   0.0789   0.1000 
32    C15      1.6390  -40.0610   21.0880 C.3     1  LIG  -0.1196  -0.2000 
33    H13      0.6832  -39.9283   21.5242 H       1  LIG   0.0807   0.1000 
34    H14      1.5292  -40.4423   20.1061 H       1  LIG   0.0733   0.1000 
@<TRIPOS>BOND
1     2     1     ar
2     3     2     1
3     4     2     ar
4     5     4     1
5     6     4     ar
6     7     6     ar
7     8     7     1
8     9     8     1
9     10    8     1
10    11    10    1
11    12    11    ar
12    13    12    1
13    14    12    ar
14    15    14    1
15    16    14    ar
16    17    16    1
17    18    16    ar
18    19    11    ar
19    19    18    ar
20    20    19    1
21    21    1     ar
22    21    7     ar
23    21    20    1
24    22    6     1
25    23    22    1
26    24    22    1
27    25    22    1
28    26    10    2
29    27    20    1
30    28    27    1
31    29    27    1
32    30    29    1
33    31    29    1
34    32    27    1
35    32    29    1
36    33    32    1
37    34    32    1
@<TRIPOS>SUBSTRUCTURE
1   LIG    1    
 
########## Name        : 1VRT.lig
########## Description : AM1BCC_CHARGES =  -0.0002 ORIGINAL_CHARGES =  -0.0000

@<TRIPOS>MOLECULE
1VRT.lig
34    37    1     0     0    
SMALL
USER_CHARGES
@<TRIPOS>ATOM
1     N1       4.0540  -36.9310   22.2210 N.ar    1  LIG  -0.6650  -0.6200 
2     C1       4.9660  -36.2380   22.9390 C.ar    1  LIG   0.3947   0.1600 
3     H1       6.0082  -36.2811   22.6707 H       1  LIG   0.0281   0.1500 
4     C2       4.6240  -35.4500   24.0360 C.ar    1  LIG  -0.2334  -0.1500 
5     H2       5.3884  -34.9151   24.5740 H       1  LIG   0.1480   0.1500 
6     C3       3.3050  -35.3690   24.4150 C.ar    1  LIG  -0.0698  -0.1435 
7     C4       2.3460  -36.0770   23.6860 C.ar    1  LIG  -0.0398   0.1170 
8     N2       0.9890  -36.0280   24.1030 N.am    1  LIG  -0.4596  -0.5470 
9     H3       0.7643  -35.9928   25.0860 H       1  LIG   0.3311   0.3700 
10    C5      -0.1450  -36.0180   23.4080 C.2     1  LIG   0.7361   0.5438 
11    C6      -0.1190  -36.0770   21.8860 C.ar    1  LIG  -0.2550   0.0862 
12    C7      -1.1230  -35.3990   21.1890 C.ar    1  LIG  -0.0321  -0.1500 
13    H4      -1.7552  -34.6955   21.7041 H       1  LIG   0.1623   0.1500 
14    C8      -1.2960  -35.6300   19.8690 C.ar    1  LIG  -0.2723  -0.1500 
15    H5      -2.0662  -35.1073   19.3273 H       1  LIG   0.1522   0.1500 
16    C9      -0.4670  -36.5450   19.2400 C.ar    1  LIG   0.4373   0.1600 
17    H6      -0.5947  -36.7554   18.1915 H       1  LIG   0.0280   0.1500 
18    N3       0.5220  -37.2120   19.8740 N.ar    1  LIG  -0.6893  -0.6200 
19    C10      0.7040  -36.9790   21.1800 C.ar    1  LIG   0.6480   0.4100 
20    N4       1.7670  -37.6730   21.8260 N.pl3   1  LIG  -0.6924  -0.3690 
21    C11      2.7540  -36.8570   22.5840 C.ar    1  LIG   0.5805   0.4100 
22    C12      2.9040  -34.5090   25.6010 C.3     1  LIG  -0.0620   0.1435 
23    H7       2.2235  -33.7630   25.2820 H       1  LIG   0.0570   0.0000 
24    H8       2.4436  -35.1154   26.3371 H       1  LIG   0.0495   0.0000 
25    H9       3.7654  -34.0491   26.0108 H       1  LIG   0.0519   0.0000 
26    O1      -1.2400  -35.9060   23.9770 O.2     1  LIG  -0.6361  -0.5700 
27    C13      2.3440  -38.7570   21.0360 C.3     1  LIG   0.1354   0.0690 
28    H10      3.1238  -38.3754   20.4296 H       1  LIG   0.0981   0.1000 
29    C14      2.9380  -39.8900   21.8010 C.3     1  LIG  -0.1181  -0.2000 
30    H11      3.8890  -40.1268   21.3997 H       1  LIG   0.0732   0.1000 
31    H12      3.0430  -39.6129   22.8177 H       1  LIG   0.0789   0.1000 
32    C15      1.6390  -40.0610   21.0880 C.3     1  LIG  -0.1196  -0.2000 
33    H13      0.6832  -39.9283   21.5242 H       1  LIG   0.0807   0.1000 
34    H14      1.5292  -40.4423   20.1061 H       1  LIG   0.0733   0.1000 
@<TRIPOS>BOND
1     2     1     ar
2     3     2     1
3     4     2     ar
4     5     4     1
5     6     4     ar
6     7     6     ar
7     8     7     1
8     9     8     1
9     10    8     1
10    11    10    1
11    12    11    ar
12    13    12    1
13    14    12    ar
14    15    14    1
15    16    14    ar
16    17    16    1
17    18    16    ar
18    19    11    ar
19    19    18    ar
20    20    19    1
21    21    1     ar
22    21    7     ar
23    21    20    1
24    22    6     1
25    23    22    1
26    24    22    1
27    25    22    1
28    26    10    2
29    27    20    1
30    28    27    1
31    29    27    1
32    30    29    1
33    31    29    1
34    32    27    1
35    32    29    1
36    33    32    1
37    34    32    1
@<TRIPOS>SUBSTRUCTURE
1   LIG    1    
 
########## Name        : 1VRT.lig
########## Description : AM1BCC_CHARGES =  -0.0002 ORIGINAL_CHARGES =  -0.0000

@<TRIPOS>MOLECULE
1VRT.lig
34    37    1     0     0    
SMALL
USER_CHARGES
@<TRIPOS>ATOM
1     N1       4.0540  -36.9310   22.2210 N.ar    1  LIG  -0.6650  -0.6200 
2     C1       4.9660  -36.2380   22.9390 C.ar    1  LIG   0.3947   0.1600 
3     H1       6.0082  -36.2811   22.6707 H       1  LIG   0.0281   0.1500 
4     C2       4.6240  -35.4500   24.0360 C.ar    1  LIG  -0.2334  -0.1500 
5     H2       5.3884  -34.9151   24.5740 H       1  LIG   0.1480   0.1500 
6     C3       3.3050  -35.3690   24.4150 C.ar    1  LIG  -0.0698  -0.1435 
7     C4       2.3460  -36.0770   23.6860 C.ar    1  LIG  -0.0398   0.1170 
8     N2       0.9890  -36.0280   24.1030 N.am    1  LIG  -0.4596  -0.5470 
9     H3       0.7643  -35.9928   25.0860 H       1  LIG   0.3311   0.3700 
10    C5      -0.1450  -36.0180   23.4080 C.2     1  LIG   0.7361   0.5438 
11    C6      -0.1190  -36.0770   21.8860 C.ar    1  LIG  -0.2550   0.0862 
12    C7      -1.1230  -35.3990   21.1890 C.ar    1  LIG  -0.0321  -0.1500 
13    H4      -1.7552  -34.6955   21.7041 H       1  LIG   0.1623   0.1500 
14    C8      -1.2960  -35.6300   19.8690 C.ar    1  LIG  -0.2723  -0.1500 
15    H5      -2.0662  -35.1073   19.3273 H       1  LIG   0.1522   0.1500 
16    C9      -0.4670  -36.5450   19.2400 C.ar    1  LIG   0.4373   0.1600 
17    H6      -0.5947  -36.7554   18.1915 H       1  LIG   0.0280   0.1500 
18    N3       0.5220  -37.2120   19.8740 N.ar    1  LIG  -0.6893  -0.6200 
19    C10      0.7040  -36.9790   21.1800 C.ar    1  LIG   0.6480   0.4100 
20    N4       1.7670  -37.6730   21.8260 N.pl3   1  LIG  -0.6924  -0.3690 
21    C11      2.7540  -36.8570   22.5840 C.ar    1  LIG   0.5805   0.4100 
22    C12      2.9040  -34.5090   25.6010 C.3     1  LIG  -0.0620   0.1435 
23    H7       2.2235  -33.7630   25.2820 H       1  LIG   0.0570   0.0000 
24    H8       2.4436  -35.1154   26.3371 H       1  LIG   0.0495   0.0000 
25    H9       3.7654  -34.0491   26.0108 H       1  LIG   0.0519   0.0000 
26    O1      -1.2400  -35.9060   23.9770 O.2     1  LIG  -0.6361  -0.5700 
27    C13      2.3440  -38.7570   21.0360 C.3     1  LIG   0.1354   0.0690 
28    H10      3.1238  -38.3754   20.4296 H       1  LIG   0.0981   0.1000 
29    C14      2.9380  -39.8900   21.8010 C.3     1  LIG  -0.1181  -0.2000 
30    H11      3.8890  -40.1268   21.3997 H       1  LIG   0.0732   0.1000 
31    H12      3.0430  -39.6129   22.8177 H       1  LIG   0.0789   0.1000 
32    C15      1.6390  -40.0610   21.0880 C.3     1  LIG  -0.1196  -0.2000 
33    H13      0.6832  -39.9283   21.5242 H       1  LIG   0.0807   0.1000 
34    H14      1.5292  -40.4423   20.1061 H       1  LIG   0.0733   0.1000 
@<TRIPOS>BOND
1     2     1     ar
2     3     2     1
3     4     2     ar
4     5     4     1
5     6     4     ar
6     7     6     ar
7     8     7     1
8     9     8     1
9     10    8     1
10    11    10    1
11    12    11    ar
12    13    12    1
13    14    12    ar
14    15    14    1
15    16    14    ar
16    17    16    1
17    18    16    ar
18    19    11    ar
19    19    18    ar
20    20    19    1
21    21    1     ar
22    21    7     ar
23    21    20    1
24    22    6     1
25    23    22    1
26    24    22    1
27    25    22    1
28    26    10    2
29    27    20    1
30    28    27    1
31    29    27    1
32    30    29    1
33    31    29    1
34    32    27    1
35    32    29    1
36    33    32    1
37    34    32    1
@<TRIPOS>SUBSTRUCTURE
1   LIG    1    
 
########## Name        : 1VRT.lig
########## Description : AM1BCC_CHARGES =  -0.0002 ORIGINAL_CHARGES =  -0.0000

@<TRIPOS>MOLECULE
1VRT.lig
34    37    1     0     0    
SMALL
USER_CHARGES
@<TRIPOS>ATOM
1     N1       4.0540  -36.9310   22.2210 N.ar    1  LIG  -0.6650  -0.6200 
2     C1       4.9660  -36.2380   22.9390 C.ar    1  LIG   0.3947   0.1600 
3     H1       6.0082  -36.2811   22.6707 H       1  LIG   0.0281   0.1500 
4     C2       4.6240  -35.4500   24.0360 C.ar    1  LIG  -0.2334  -0.1500 
5     H2       5.3884  -34.9151   24.5740 H       1  LIG   0.1480   0.1500 
6     C3       3.3050  -35.3690   24.4150 C.ar    1  LIG  -0.0698  -0.1435 
7     C4       2.3460  -36.0770   23.6860 C.ar    1  LIG  -0.0398   0.1170 
8     N2       0.9890  -36.0280   24.1030 N.am    1  LIG  -0.4596  -0.5470 
9     H3       0.7643  -35.9928   25.0860 H       1  LIG   0.3311   0.3700 
10    C5      -0.1450  -36.0180   23.4080 C.2     1  LIG   0.7361   0.5438 
11    C6      -0.1190  -36.0770   21.8860 C.ar    1  LIG  -0.2550   0.0862 
12    C7      -1.1230  -35.3990   21.1890 C.ar    1  LIG  -0.0321  -0.1500 
13    H4      -1.7552  -34.6955   21.7041 H       1  LIG   0.1623   0.1500 
14    C8      -1.2960  -35.6300   19.8690 C.ar    1  LIG  -0.2723  -0.1500 
15    H5      -2.0662  -35.1073   19.3273 H       1  LIG   0.1522   0.1500 
16    C9      -0.4670  -36.5450   19.2400 C.ar    1  LIG   0.4373   0.1600 
17    H6      -0.5947  -36.7554   18.1915 H       1  LIG   0.0280   0.1500 
18    N3       0.5220  -37.2120   19.8740 N.ar    1  LIG  -0.6893  -0.6200 
19    C10      0.7040  -36.9790   21.1800 C.ar    1  LIG   0.6480   0.4100 
20    N4       1.7670  -37.6730   21.8260 N.pl3   1  LIG  -0.6924  -0.3690 
21    C11      2.7540  -36.8570   22.5840 C.ar    1  LIG   0.5805   0.4100 
22    C12      2.9040  -34.5090   25.6010 C.3     1  LIG  -0.0620   0.1435 
23    H7       2.2235  -33.7630   25.2820 H       1  LIG   0.0570   0.0000 
24    H8       2.4436  -35.1154   26.3371 H       1  LIG   0.0495   0.0000 
25    H9       3.7654  -34.0491   26.0108 H       1  LIG   0.0519   0.0000 
26    O1      -1.2400  -35.9060   23.9770 O.2     1  LIG  -0.6361  -0.5700 
27    C13      2.3440  -38.7570   21.0360 C.3     1  LIG   0.1354   0.0690 
28    H10      3.1238  -38.3754   20.4296 H       1  LIG   0.0981   0.1000 
29    C14      2.9380  -39.8900   21.8010 C.3     1  LIG  -0.1181  -0.2000 
30    H11      3.8890  -40.1268   21.3997 H       1  LIG   0.0732   0.1000 
31    H12      3.0430  -39.6129   22.8177 H       1  LIG   0.0789   0.1000 
32    C15      1.6390  -40.0610   21.0880 C.3     1  LIG  -0.1196  -0.2000 
33    H13      0.6832  -39.9283   21.5242 H       1  LIG   0.0807   0.1000 
34    H14      1.5292  -40.4423   20.1061 H       1  LIG   0.0733   0.1000 
@<TRIPOS>BOND
1     2     1     ar
2     3     2     1
3     4     2     ar
4     5     4     1
5     6     4     ar
6     7     6     ar
7     8     7     1
8     9     8     1
9     10    8     1
10    11    10    1
11    12    11    ar
12    13    12    1
13    14    12    ar
14    15    14    1
15    16    14    ar
16    17    16    1
17    18    16    ar
18    19    11    ar
19    19    18    ar
20    20    19    1
21    21    1     ar
22    21    7     ar
23    21    20    1
24    22    6     1
25    23    22    1
26    24    22    1
27    25    22    1
28    26    10    2
29    27    20    1
30    28    27    1
31    29    27    1
32    30    29    1
33    31    29    1
34    32    27    1
35    32    29    1
36    33    32    1
37    34    32    1
@<TRIPOS>SUBSTRUCTURE
1   LIG    1    
 
########## Name        : 1VRT.lig
########## Description : AM1BCC_CHARGES =  -0.0002 ORIGINAL_CHARGES =  -0.0000

@<TRIPOS>MOLECULE
1VRT.lig
34    37    1     0     0    
SMALL
USER_CHARGES
@<TRIPOS>ATOM
1     N1       4.0540  -36.9310   22.2210 N.ar    1  LIG  -0.6650  -0.6200 
2     C1       4.9660  -36.2380   22.9390 C.ar    1  LIG   0.3947   0.1600 
3     H1       6.0082  -36.2811   22.6707 H       1  LIG   0.0281   0.1500 
4     C2       4.6240  -35.4500   24.0360 C.ar    1  LIG  -0.2334  -0.1500 
5     H2       5.3884  -34.9151   24.5740 H       1  LIG   0.1480   0.1500 
6     C3       3.3050  -35.3690   24.4150 C.ar    1  LIG  -0.0698  -0.1435 
7     C4       2.3460  -36.0770   23.6860 C.ar    1  LIG  -0.0398   0.1170 
8     N2       0.9890  -36.0280   24.1030 N.am    1  LIG  -0.4596  -0.5470 
9     H3       0.7643  -35.9928   25.0860 H       1  LIG   0.3311   0.3700 
10    C5      -0.1450  -36.0180   23.4080 C.2     1  LIG   0.7361   0.5438 
11    C6      -0.1190  -36.0770   21.8860 C.ar    1  LIG  -0.2550   0.0862 
12    C7      -1.1230  -35.3990   21.1890 C.ar    1  LIG  -0.0321  -0.1500 
13    H4      -1.7552  -34.6955   21.7041 H       1  LIG   0.1623   0.1500 
14    C8      -1.2960  -35.6300   19.8690 C.ar    1  LIG  -0.2723  -0.1500 
15    H5      -2.0662  -35.1073   19.3273 H       1  LIG   0.1522   0.1500 
16    C9      -0.4670  -36.5450   19.2400 C.ar    1  LIG   0.4373   0.1600 
17    H6      -0.5947  -36.7554   18.1915 H       1  LIG   0.0280   0.1500 
18    N3       0.5220  -37.2120   19.8740 N.ar    1  LIG  -0.6893  -0.6200 
19    C10      0.7040  -36.9790   21.1800 C.ar    1  LIG   0.6480   0.4100 
20    N4       1.7670  -37.6730   21.8260 N.pl3   1  LIG  -0.6924  -0.3690 
21    C11      2.7540  -36.8570   22.5840 C.ar    1  LIG   0.5805   0.4100 
22    C12      2.9040  -34.5090   25.6010 C.3     1  LIG  -0.0620   0.1435 
23    H7       2.2235  -33.7630   25.2820 H       1  LIG   0.0570   0.0000 
24    H8       2.4436  -35.1154   26.3371 H       1  LIG   0.0495   0.0000 
25    H9       3.7654  -34.0491   26.0108 H       1  LIG   0.0519   0.0000 
26    O1      -1.2400  -35.9060   23.9770 O.2     1  LIG  -0.6361  -0.5700 
27    C13      2.3440  -38.7570   21.0360 C.3     1  LIG   0.1354   0.0690 
28    H10      3.1238  -38.3754   20.4296 H       1  LIG   0.0981   0.1000 
29    C14      2.9380  -39.8900   21.8010 C.3     1  LIG  -0.1181  -0.2000 
30    H11      3.8890  -40.1268   21.3997 H       1  LIG   0.0732   0.1000 
31    H12      3.0430  -39.6129   22.8177 H       1  LIG   0.0789   0.1000 
32    C15      1.6390  -40.0610   21.0880 C.3     1  LIG  -0.1196  -0.2000 
33    H13      0.6832  -39.9283   21.5242 H       1  LIG   0.0807   0.1000 
34    H14      1.5292  -40.4423   20.1061 H       1  LIG   0.0733   0.1000 
@<TRIPOS>BOND
1     2     1     ar
2     3     2     1
3     4     2     ar
4     5     4     1
5     6     4     ar
6     7     6     ar
7     8     7     1
8     9     8     1
9     10    8     1
10    11    10    1
11    12    11    ar
12    13    12    1
13    14    12    ar
14    15    14    1
15    16    14    ar
16    17    16    1
17    18    16    ar
18    19    11    ar
19    19    18    ar
20    20    19    1
21    21    1     ar
22    21    7     ar
23    21    20    1
24    22    6     1
25    23    22    1
26    24    22    1
27    25    22    1
28    26    10    2
29    27    20    1
30    28    27    1
31    29    27    1
32    30    29    1
33    31    29    1
34    32    27    1
35    32    29    1
36    33    32    1
37    34    32    1
@<TRIPOS>SUBSTRUCTURE
1   LIG    1    
 
########## Name        : 1VRT.lig
########## Description : AM1BCC_CHARGES =  -0.0002 ORIGINAL_CHARGES =  -0.0000

@<TRIPOS>MOLECULE
1VRT.lig
34    37    1     0     0    
SMALL
USER_CHARGES
@<TRIPOS>ATOM
1     N1       4.0540  -36.9310   22.2210 N.ar    1  LIG  -0.6650  -0.6200 
2     C1       4.9660  -36.2380   22.9390 C.ar    1  LIG   0.3947   0.1600 
3     H1       6.0082  -36.2811   22.6707 H       1  LIG   0.0281   0.1500 
4     C2       4.6240  -35.4500   24.0360 C.ar    1  LIG  -0.2334  -0.1500 
5     H2       5.3884  -34.9151   24.5740 H       1  LIG   0.1480   0.1500 
6     C3       3.3050  -35.3690   24.4150 C.ar    1  LIG  -0.0698  -0.1435 
7     C4       2.3460  -36.0770   23.6860 C.ar    1  LIG  -0.0398   0.1170 
8     N2       0.9890  -36.0280   24.1030 N.am    1  LIG  -0.4596  -0.5470 
9     H3       0.7643  -35.9928   25.0860 H       1  LIG   0.3311   0.3700 
10    C5      -0.1450  -36.0180   23.4080 C.2     1  LIG   0.7361   0.5438 
11    C6      -0.1190  -36.0770   21.8860 C.ar    1  LIG  -0.2550   0.0862 
12    C7      -1.1230  -35.3990   21.1890 C.ar    1  LIG  -0.0321  -0.1500 
13    H4      -1.7552  -34.6955   21.7041 H       1  LIG   0.1623   0.1500 
14    C8      -1.2960  -35.6300   19.8690 C.ar    1  LIG  -0.2723  -0.1500 
15    H5      -2.0662  -35.1073   19.3273 H       1  LIG   0.1522   0.1500 
16    C9      -0.4670  -36.5450   19.2400 C.ar    1  LIG   0.4373   0.1600 
17    H6      -0.5947  -36.7554   18.1915 H       1  LIG   0.0280   0.1500 
18    N3       0.5220  -37.2120   19.8740 N.ar    1  LIG  -0.6893  -0.6200 
19    C10      0.7040  -36.9790   21.1800 C.ar    1  LIG   0.6480   0.4100 
20    N4       1.7670  -37.6730   21.8260 N.pl3   1  LIG  -0.6924  -0.3690 
21    C11      2.7540  -36.8570   22.5840 C.ar    1  LIG   0.5805   0.4100 
22    C12      2.9040  -34.5090   25.6010 C.3     1  LIG  -0.0620   0.1435 
23    H7       2.2235  -33.7630   25.2820 H       1  LIG   0.0570   0.0000 
24    H8       2.4436  -35.1154   26.3371 H       1  LIG   0.0495   0.0000 
25    H9       3.7654  -34.0491   26.0108 H       1  LIG   0.0519   0.0000 
26    O1      -1.2400  -35.9060   23.9770 O.2     1  LIG  -0.6361  -0.5700 
27    C13      2.3440  -38.7570   21.0360 C.3     1  LIG   0.1354   0.0690 
28    H10      3.1238  -38.3754   20.4296 H       1  LIG   0.0981   0.1000 
29    C14      2.9380  -39.8900   21.8010 C.3     1  LIG  -0.1181  -0.2000 
30    H11      3.8890  -40.1268   21.3997 H       1  LIG   0.0732   0.1000 
31    H12      3.0430  -39.6129   22.8177 H       1  LIG   0.0789   0.1000 
32    C15      1.6390  -40.0610   21.0880 C.3     1  LIG  -0.1196  -0.2000 
33    H13      0.6832  -39.9283   21.5242 H       1  LIG   0.0807   0.1000 
34    H14      1.5292  -40.4423   20.1061 H       1  LIG   0.0733   0.1000 
@<TRIPOS>BOND
1     2     1     ar
2     3     2     1
3     4     2     ar
4     5     4     1
5     6     4     ar
6     7     6     ar
7     8     7     1
8     9     8     1
9     10    8     1
10    11    10    1
11    12    11    ar
12    13    12    1
13    14    12    ar
14    15    14    1
15    16    14    ar
16    17    16    1
17    18    16    ar
18    19    11    ar
19    19    18    ar
20    20    19    1
21    21    1     ar
22    21    7     ar
23    21    20    1
24    22    6     1
25    23    22    1
26    24    22    1
27    25    22    1
28    26    10    2
29    27    20    1
30    28    27    1
31    29    27    1
32    30    29    1
33    31    29    1
34    32    27    1
35    32    29    1
36    33    32    1
37    34    32    1
@<TRIPOS>SUBSTRUCTURE
1   LIG    1    
 
########## Name        : 1VRT.lig
########## Description : AM1BCC_CHARGES =  -0.0002 ORIGINAL_CHARGES =  -0.0000

@<TRIPOS>MOLECULE
1VRT.lig
34    37    1     0     0    
SMALL
USER_CHARGES
@<TRIPOS>ATOM
1     N1       4.0540  -36.9310   22.2210 N.ar    1  LIG  -0.6650  -0.6200 
2     C1       4.9660  -36.2380   22.9390 C.ar    1  LIG   0.3947   0.1600 
3     H1       6.0082  -36.2811   22.6707 H       1  LIG   0.0281   0.1500 
4     C2       4.6240  -35.4500   24.0360 C.ar    1  LIG  -0.2334  -0.1500 
5     H2       5.3884  -34.9151   24.5740 H       1  LIG   0.1480   0.1500 
6     C3       3.3050  -35.3690   24.4150 C.ar    1  LIG  -0.0698  -0.1435 
7     C4       2.3460  -36.0770   23.6860 C.ar    1  LIG  -0.0398   0.1170 
8     N2       0.9890  -36.0280   24.1030 N.am    1  LIG  -0.4596  -0.5470 
9     H3       0.7643  -35.9928   25.0860 H       1  LIG   0.3311   0.3700 
10    C5      -0.1450  -36.0180   23.4080 C.2     1  LIG   0.7361   0.5438 
11    C6      -0.1190  -36.0770   21.8860 C.ar    1  LIG  -0.2550   0.0862 
12    C7      -1.1230  -35.3990   21.1890 C.ar    1  LIG  -0.0321  -0.1500 
13    H4      -1.7552  -34.6955   21.7041 H       1  LIG   0.1623   0.1500 
14    C8      -1.2960  -35.6300   19.8690 C.ar    1  LIG  -0.2723  -0.1500 
15    H5      -2.0662  -35.1073   19.3273 H       1  LIG   0.1522   0.1500 
16    C9      -0.4670  -36.5450   19.2400 C.ar    1  LIG   0.4373   0.1600 
17    H6      -0.5947  -36.7554   18.1915 H       1  LIG   0.0280   0.1500 
18    N3       0.5220  -37.2120   19.8740 N.ar    1  LIG  -0.6893  -0.6200 
19    C10      0.7040  -36.9790   21.1800 C.ar    1  LIG   0.6480   0.4100 
20    N4       1.7670  -37.6730   21.8260 N.pl3   1  LIG  -0.6924  -0.3690 
21    C11      2.7540  -36.8570   22.5840 C.ar    1  LIG   0.5805   0.4100 
22    C12      2.9040  -34.5090   25.6010 C.3     1  LIG  -0.0620   0.1435 
23    H7       2.2235  -33.7630   25.2820 H       1  LIG   0.0570   0.0000 
24    H8       2.4436  -35.1154   26.3371 H       1  LIG   0.0495   0.0000 
25    H9       3.7654  -34.0491   26.0108 H       1  LIG   0.0519   0.0000 
26    O1      -1.2400  -35.9060   23.9770 O.2     1  LIG  -0.6361  -0.5700 
27    C13      2.3440  -38.7570   21.0360 C.3     1  LIG   0.1354   0.0690 
28    H10      3.1238  -38.3754   20.4296 H       1  LIG   0.0981   0.1000 
29    C14      2.9380  -39.8900   21.8010 C.3     1  LIG  -0.1181  -0.2000 
30    H11      3.8890  -40.1268   21.3997 H       1  LIG   0.0732   0.1000 
31    H12      3.0430  -39.6129   22.8177 H       1  LIG   0.0789   0.1000 
32    C15      1.6390  -40.0610   21.0880 C.3     1  LIG  -0.1196  -0.2000 
33    H13      0.6832  -39.9283   21.5242 H       1  LIG   0.0807   0.1000 
34    H14      1.5292  -40.4423   20.1061 H       1  LIG   0.0733   0.1000 
@<TRIPOS>BOND
1     2     1     ar
2     3     2     1
3     4     2     ar
4     5     4     1
5     6     4     ar
6     7     6     ar
7     8     7     1
8     9     8     1
9     10    8     1
10    11    10    1
11    12    11    ar
12    13    12    1
13    14    12    ar
14    15    14    1
15    16    14    ar
16    17    16    1
17    18    16    ar
18    19    11    ar
19    19    18    ar
20    20    19    1
21    21    1     ar
22    21    7     ar
23    21    20    1
24    22    6     1
25    23    22    1
26    24    22    1
27    25    22    1
28    26    10    2
29    27    20    1
30    28    27    1
31    29    27    1
32    30    29    1
33    31    29    1
34    32    27    1
35    32    29    1
36    33    32    1
37    34    32    1
@<TRIPOS>SUBSTRUCTURE
1   LIG    1    
 
########## Name        : 1VRT.lig
########## Description : AM1BCC_CHARGES =  -0.0002 ORIGINAL_CHARGES =  -0.0000

@<TRIPOS>MOLECULE
1VRT.lig
34    37    1     0     0    
SMALL
USER_CHARGES
@<TRIPOS>ATOM
1     N1       4.0540  -36.9310   22.2210 N.ar    1  LIG  -0.6650  -0.6200 
2     C1       4.9660  -36.2380   22.9390 C.ar    1  LIG   0.3947   0.1600 
3     H1       6.0082  -36.2811   22.6707 H       1  LIG   0.0281   0.1500 
4     C2       4.6240  -35.4500   24.0360 C.ar    1  LIG  -0.2334  -0.1500 
5     H2       5.3884  -34.9151   24.5740 H       1  LIG   0.1480   0.1500 
6     C3       3.3050  -35.3690   24.4150 C.ar    1  LIG  -0.0698  -0.1435 
7     C4       2.3460  -36.0770   23.6860 C.ar    1  LIG  -0.0398   0.1170 
8     N2       0.9890  -36.0280   24.1030 N.am    1  LIG  -0.4596  -0.5470 
9     H3       0.7643  -35.9928   25.0860 H       1  LIG   0.3311   0.3700 
10    C5      -0.1450  -36.0180   23.4080 C.2     1  LIG   0.7361   0.5438 
11    C6      -0.1190  -36.0770   21.8860 C.ar    1  LIG  -0.2550   0.0862 
12    C7      -1.1230  -35.3990   21.1890 C.ar    1  LIG  -0.0321  -0.1500 
13    H4      -1.7552  -34.6955   21.7041 H       1  LIG   0.1623   0.1500 
14    C8      -1.2960  -35.6300   19.8690 C.ar    1  LIG  -0.2723  -0.1500 
15    H5      -2.0662  -35.1073   19.3273 H       1  LIG   0.1522   0.1500 
16    C9      -0.4670  -36.5450   19.2400 C.ar    1  LIG   0.4373   0.1600 
17    H6      -0.5947  -36.7554   18.1915 H       1  LIG   0.0280   0.1500 
18    N3       0.5220  -37.2120   19.8740 N.ar    1  LIG  -0.6893  -0.6200 
19    C10      0.7040  -36.9790   21.1800 C.ar    1  LIG   0.6480   0.4100 
20    N4       1.7670  -37.6730   21.8260 N.pl3   1  LIG  -0.6924  -0.3690 
21    C11      2.7540  -36.8570   22.5840 C.ar    1  LIG   0.5805   0.4100 
22    C12      2.9040  -34.5090   25.6010 C.3     1  LIG  -0.0620   0.1435 
23    H7       2.2235  -33.7630   25.2820 H       1  LIG   0.0570   0.0000 
24    H8       2.4436  -35.1154   26.3371 H       1  LIG   0.0495   0.0000 
25    H9       3.7654  -34.0491   26.0108 H       1  LIG   0.0519   0.0000 
26    O1      -1.2400  -35.9060   23.9770 O.2     1  LIG  -0.6361  -0.5700 
27    C13      2.3440  -38.7570   21.0360 C.3     1  LIG   0.1354   0.0690 
28    H10      3.1238  -38.3754   20.4296 H       1  LIG   0.0981   0.1000 
29    C14      2.9380  -39.8900   21.8010 C.3     1  LIG  -0.1181  -0.2000 
30    H11      3.8890  -40.1268   21.3997 H       1  LIG   0.0732   0.1000 
31    H12      3.0430  -39.6129   22.8177 H       1  LIG   0.0789   0.1000 
32    C15      1.6390  -40.0610   21.0880 C.3     1  LIG  -0.1196  -0.2000 
33    H13      0.6832  -39.9283   21.5242 H       1  LIG   0.0807   0.1000 
34    H14      1.5292  -40.4423   20.1061 H       1  LIG   0.0733   0.1000 
@<TRIPOS>BOND
1     2     1     ar
2     3     2     1
3     4     2     ar
4     5     4     1
5     6     4     ar
6     7     6     ar
7     8     7     1
8     9     8     1
9     10    8     1
10    11    10    1
11    12    11    ar
12    13    12    1
13    14    12    ar
14    15    14    1
15    16    14    ar
16    17    16    1
17    18    16    ar
18    19    11    ar
19    19    18    ar
20    20    19    1
21    21    1     ar
22    21    7     ar
23    21    20    1
24    22    6     1
25    23    22    1
26    24    22    1
27    25    22    1
28    26    10    2
29    27    20    1
30    28    27    1
31    29    27    1
32    30    29    1
33    31    29    1
34    32    27    1
35    32    29    1
36    33    32    1
37    34    32    1
@<TRIPOS>SUBSTRUCTURE
1   LIG    1    
 
########## Name        : 1VRT.lig
########## Description : AM1BCC_CHARGES =  -0.0002 ORIGINAL_CHARGES =  -0.0000

@<TRIPOS>MOLECULE
1VRT.lig
34    37    1     0     0    
SMALL
USER_CHARGES
@<TRIPOS>ATOM
1     N1       4.0540  -36.9310   22.2210 N.ar    1  LIG  -0.6650  -0.6200 
2     C1       4.9660  -36.2380   22.9390 C.ar    1  LIG   0.3947   0.1600 
3     H1       6.0082  -36.2811   22.6707 H       1  LIG   0.0281   0.1500 
4     C2       4.6240  -35.4500   24.0360 C.ar    1  LIG  -0.2334  -0.1500 
5     H2       5.3884  -34.9151   24.5740 H       1  LIG   0.1480   0.1500 
6     C3       3.3050  -35.3690   24.4150 C.ar    1  LIG  -0.0698  -0.1435 
7     C4       2.3460  -36.0770   23.6860 C.ar    1  LIG  -0.0398   0.1170 
8     N2       0.9890  -36.0280   24.1030 N.am    1  LIG  -0.4596  -0.5470 
9     H3       0.7643  -35.9928   25.0860 H       1  LIG   0.3311   0.3700 
10    C5      -0.1450  -36.0180   23.4080 C.2     1  LIG   0.7361   0.5438 
11    C6      -0.1190  -36.0770   21.8860 C.ar    1  LIG  -0.2550   0.0862 
12    C7      -1.1230  -35.3990   21.1890 C.ar    1  LIG  -0.0321  -0.1500 
13    H4      -1.7552  -34.6955   21.7041 H       1  LIG   0.1623   0.1500 
14    C8      -1.2960  -35.6300   19.8690 C.ar    1  LIG  -0.2723  -0.1500 
15    H5      -2.0662  -35.1073   19.3273 H       1  LIG   0.1522   0.1500 
16    C9      -0.4670  -36.5450   19.2400 C.ar    1  LIG   0.4373   0.1600 
17    H6      -0.5947  -36.7554   18.1915 H       1  LIG   0.0280   0.1500 
18    N3       0.5220  -37.2120   19.8740 N.ar    1  LIG  -0.6893  -0.6200 
19    C10      0.7040  -36.9790   21.1800 C.ar    1  LIG   0.6480   0.4100 
20    N4       1.7670  -37.6730   21.8260 N.pl3   1  LIG  -0.6924  -0.3690 
21    C11      2.7540  -36.8570   22.5840 C.ar    1  LIG   0.5805   0.4100 
22    C12      2.9040  -34.5090   25.6010 C.3     1  LIG  -0.0620   0.1435 
23    H7       2.2235  -33.7630   25.2820 H       1  LIG   0.0570   0.0000 
24    H8       2.4436  -35.1154   26.3371 H       1  LIG   0.0495   0.0000 
25    H9       3.7654  -34.0491   26.0108 H       1  LIG   0.0519   0.0000 
26    O1      -1.2400  -35.9060   23.9770 O.2     1  LIG  -0.6361  -0.5700 
27    C13      2.3440  -38.7570   21.0360 C.3     1  LIG   0.1354   0.0690 
28    H10      3.1238  -38.3754   20.4296 H       1  LIG   0.0981   0.1000 
29    C14      2.9380  -39.8900   21.8010 C.3     1  LIG  -0.1181  -0.2000 
30    H11      3.8890  -40.1268   21.3997 H       1  LIG   0.0732   0.1000 
31    H12      3.0430  -39.6129   22.8177 H       1  LIG   0.0789   0.1000 
32    C15      1.6390  -40.0610   21.0880 C.3     1  LIG  -0.1196  -0.2000 
33    H13      0.6832  -39.9283   21.5242 H       1  LIG   0.0807   0.1000 
34    H14      1.5292  -40.4423   20.1061 H       1  LIG   0.0733   0.1000 
@<TRIPOS>BOND
1     2     1     ar
2     3     2     1
3     4     2     ar
4     5     4     1
5     6     4     ar
6     7     6     ar
7     8     7     1
8     9     8     1
9     10    8     1
10    11    10    1
11    12    11    ar
12    13    12    1
13    14    12    ar
14    15    14    1
15    16    14    ar
16    17    16    1
17    18    16    ar
18    19    11    ar
19    19    18    ar
20    20    19    1
21    21    1     ar
22    21    7     ar
23    21    20    1
24    22    6     1
25    23    22    1
26    24    22    1
27    25    22    1
28    26    10    2
29    27    20    1
30    28    27    1
31    29    27    1
32    30    29    1
33    31    29    1
34    32    27    1
35    32    29    1
36    33    32    1
37    34    32    1
@<TRIPOS>SUBSTRUCTURE
1   LIG    1    
 
########## Name        : 1VRT.lig
########## Description : AM1BCC_CHARGES =  -0.0002 ORIGINAL_CHARGES =  -0.0000

@<TRIPOS>MOLECULE
1VRT.lig
34    37    1     0     0    
SMALL
USER_CHARGES
@<TRIPOS>ATOM
1     N1       4.0540  -36.9310   22.2210 N.ar    1  LIG  -0.6650  -0.6200 
2     C1       4.9660  -36.2380   22.9390 C.ar    1  LIG   0.3947   0.1600 
3     H1       6.0082  -36.2811   22.6707 H       1  LIG   0.0281   0.1500 
4     C2       4.6240  -35.4500   24.0360 C.ar    1  LIG  -0.2334  -0.1500 
5     H2       5.3884  -34.9151   24.5740 H       1  LIG   0.1480   0.1500 
6     C3       3.3050  -35.3690   24.4150 C.ar    1  LIG  -0.0698  -0.1435 
7     C4       2.3460  -36.0770   23.6860 C.ar    1  LIG  -0.0398   0.1170 
8     N2       0.9890  -36.0280   24.1030 N.am    1  LIG  -0.4596  -0.5470 
9     H3       0.7643  -35.9928   25.0860 H       1  LIG   0.3311   0.3700 
10    C5      -0.1450  -36.0180   23.4080 C.2     1  LIG   0.7361   0.5438 
11    C6      -0.1190  -36.0770   21.8860 C.ar    1  LIG  -0.2550   0.0862 
12    C7      -1.1230  -35.3990   21.1890 C.ar    1  LIG  -0.0321  -0.1500 
13    H4      -1.7552  -34.6955   21.7041 H       1  LIG   0.1623   0.1500 
14    C8      -1.2960  -35.6300   19.8690 C.ar    1  LIG  -0.2723  -0.1500 
15    H5      -2.0662  -35.1073   19.3273 H       1  LIG   0.1522   0.1500 
16    C9      -0.4670  -36.5450   19.2400 C.ar    1  LIG   0.4373   0.1600 
17    H6      -0.5947  -36.7554   18.1915 H       1  LIG   0.0280   0.1500 
18    N3       0.5220  -37.2120   19.8740 N.ar    1  LIG  -0.6893  -0.6200 
19    C10      0.7040  -36.9790   21.1800 C.ar    1  LIG   0.6480   0.4100 
20    N4       1.7670  -37.6730   21.8260 N.pl3   1  LIG  -0.6924  -0.3690 
21    C11      2.7540  -36.8570   22.5840 C.ar    1  LIG   0.5805   0.4100 
22    C12      2.9040  -34.5090   25.6010 C.3     1  LIG  -0.0620   0.1435 
23    H7       2.2235  -33.7630   25.2820 H       1  LIG   0.0570   0.0000 
24    H8       2.4436  -35.1154   26.3371 H       1  LIG   0.0495   0.0000 
25    H9       3.7654  -34.0491   26.0108 H       1  LIG   0.0519   0.0000 
26    O1      -1.2400  -35.9060   23.9770 O.2     1  LIG  -0.6361  -0.5700 
27    C13      2.3440  -38.7570   21.0360 C.3     1  LIG   0.1354   0.0690 
28    H10      3.1238  -38.3754   20.4296 H       1  LIG   0.0981   0.1000 
29    C14      2.9380  -39.8900   21.8010 C.3     1  LIG  -0.1181  -0.2000 
30    H11      3.8890  -40.1268   21.3997 H       1  LIG   0.0732   0.1000 
31    H12      3.0430  -39.6129   22.8177 H       1  LIG   0.0789   0.1000 
32    C15      1.6390  -40.0610   21.0880 C.3     1  LIG  -0.1196  -0.2000 
33    H13      0.6832  -39.9283   21.5242 H       1  LIG   0.0807   0.1000 
34    H14      1.5292  -40.4423   20.1061 H       1  LIG   0.0733   0.1000 
@<TRIPOS>BOND
1     2     1     ar
2     3     2     1
3     4     2     ar
4     5     4     1
5     6     4     ar
6     7     6     ar
7     8     7     1
8     9     8     1
9     10    8     1
10    11    10    1
11    12    11    ar
12    13    12    1
13    14    12    ar
14    15    14    1
15    16    14    ar
16    17    16    1
17    18    16    ar
18    19    11    ar
19    19    18    ar
20    20    19    1
21    21    1     ar
22    21    7     ar
23    21    20    1
24    22    6     1
25    23    22    1
26    24    22    1
27    25    22    1
28    26    10    2
29    27    20    1
30    28    27    1
31    29    27    1
32    30    29    1
33    31    29    1
34    32    27    1
35    32    29    1
36    33    32    1
37    34    32    1
@<TRIPOS>SUBSTRUCTURE
1   LIG    1    
 
########## Name        : 1VRT.lig
########## Description : AM1BCC_CHARGES =  -0.0002 ORIGINAL_CHARGES =  -0.0000

@<TRIPOS>MOLECULE
1VRT.lig
34    37    1     0     0    
SMALL
USER_CHARGES
@<TRIPOS>ATOM
1     N1       4.0540  -36.9310   22.2210 N.ar    1  LIG  -0.6650  -0.6200 
2     C1       4.9660  -36.2380   22.9390 C.ar    1  LIG   0.3947   0.1600 
3     H1       6.0082  -36.2811   22.6707 H       1  LIG   0.0281   0.1500 
4     C2       4.6240  -35.4500   24.0360 C.ar    1  LIG  -0.2334  -0.1500 
5     H2       5.3884  -34.9151   24.5740 H       1  LIG   0.1480   0.1500 
6     C3       3.3050  -35.3690   24.4150 C.ar    1  LIG  -0.0698  -0.1435 
7     C4       2.3460  -36.0770   23.6860 C.ar    1  LIG  -0.0398   0.1170 
8     N2       0.9890  -36.0280   24.1030 N.am    1  LIG  -0.4596  -0.5470 
9     H3       0.7643  -35.9928   25.0860 H       1  LIG   0.3311   0.3700 
10    C5      -0.1450  -36.0180   23.4080 C.2     1  LIG   0.7361   0.5438 
11    C6      -0.1190  -36.0770   21.8860 C.ar    1  LIG  -0.2550   0.0862 
12    C7      -1.1230  -35.3990   21.1890 C.ar    1  LIG  -0.0321  -0.1500 
13    H4      -1.7552  -34.6955   21.7041 H       1  LIG   0.1623   0.1500 
14    C8      -1.2960  -35.6300   19.8690 C.ar    1  LIG  -0.2723  -0.1500 
15    H5      -2.0662  -35.1073   19.3273 H       1  LIG   0.1522   0.1500 
16    C9      -0.4670  -36.5450   19.2400 C.ar    1  LIG   0.4373   0.1600 
17    H6      -0.5947  -36.7554   18.1915 H       1  LIG   0.0280   0.1500 
18    N3       0.5220  -37.2120   19.8740 N.ar    1  LIG  -0.6893  -0.6200 
19    C10      0.7040  -36.9790   21.1800 C.ar    1  LIG   0.6480   0.4100 
20    N4       1.7670  -37.6730   21.8260 N.pl3   1  LIG  -0.6924  -0.3690 
21    C11      2.7540  -36.8570   22.5840 C.ar    1  LIG   0.5805   0.4100 
22    C12      2.9040  -34.5090   25.6010 C.3     1  LIG  -0.0620   0.1435 
23    H7       2.2235  -33.7630   25.2820 H       1  LIG   0.0570   0.0000 
24    H8       2.4436  -35.1154   26.3371 H       1  LIG   0.0495   0.0000 
25    H9       3.7654  -34.0491   26.0108 H       1  LIG   0.0519   0.0000 
26    O1      -1.2400  -35.9060   23.9770 O.2     1  LIG  -0.6361  -0.5700 
27    C13      2.3440  -38.7570   21.0360 C.3     1  LIG   0.1354   0.0690 
28    H10      3.1238  -38.3754   20.4296 H       1  LIG   0.0981   0.1000 
29    C14      2.9380  -39.8900   21.8010 C.3     1  LIG  -0.1181  -0.2000 
30    H11      3.8890  -40.1268   21.3997 H       1  LIG   0.0732   0.1000 
31    H12      3.0430  -39.6129   22.8177 H       1  LIG   0.0789   0.1000 
32    C15      1.6390  -40.0610   21.0880 C.3     1  LIG  -0.1196  -0.2000 
33    H13      0.6832  -39.9283   21.5242 H       1  LIG   0.0807   0.1000 
34    H14      1.5292  -40.4423   20.1061 H       1  LIG   0.0733   0.1000 
@<TRIPOS>BOND
1     2     1     ar
2     3     2     1
3     4     2     ar
4     5     4     1
5     6     4     ar
6     7     6     ar
7     8     7     1
8     9     8     1
9     10    8     1
10    11    10    1
11    12    11    ar
12    13    12    1
13    14    12    ar
14    15    14    1
15    16    14    ar
16    17    16    1
17    18    16    ar
18    19    11    ar
19    19    18    ar
20    20    19    1
21    21    1     ar
22    21    7     ar
23    21    20    1
24    22    6     1
25    23    22    1
26    24    22    1
27    25    22    1
28    26    10    2
29    27    20    1
30    28    27    1
31    29    27    1
32    30    29    1
33    31    29    1
34    32    27    1
35    32    29    1
36    33    32    1
37    34    32    1
@<TRIPOS>SUBSTRUCTURE
1   LIG    1    
 
########## Name        : 1VRT.lig
########## Description : AM1BCC_CHARGES =  -0.0002 ORIGINAL_CHARGES =  -0.0000

@<TRIPOS>MOLECULE
1VRT.lig
34    37    1     0     0    
SMALL
USER_CHARGES
@<TRIPOS>ATOM
1     N1       4.0540  -36.9310   22.2210 N.ar    1  LIG  -0.6650  -0.6200 
2     C1       4.9660  -36.2380   22.9390 C.ar    1  LIG   0.3947   0.1600 
3     H1       6.0082  -36.2811   22.6707 H       1  LIG   0.0281   0.1500 
4     C2       4.6240  -35.4500   24.0360 C.ar    1  LIG  -0.2334  -0.1500 
5     H2       5.3884  -34.9151   24.5740 H       1  LIG   0.1480   0.1500 
6     C3       3.3050  -35.3690   24.4150 C.ar    1  LIG  -0.0698  -0.1435 
7     C4       2.3460  -36.0770   23.6860 C.ar    1  LIG  -0.0398   0.1170 
8     N2       0.9890  -36.0280   24.1030 N.am    1  LIG  -0.4596  -0.5470 
9     H3       0.7643  -35.9928   25.0860 H       1  LIG   0.3311   0.3700 
10    C5      -0.1450  -36.0180   23.4080 C.2     1  LIG   0.7361   0.5438 
11    C6      -0.1190  -36.0770   21.8860 C.ar    1  LIG  -0.2550   0.0862 
12    C7      -1.1230  -35.3990   21.1890 C.ar    1  LIG  -0.0321  -0.1500 
13    H4      -1.7552  -34.6955   21.7041 H       1  LIG   0.1623   0.1500 
14    C8      -1.2960  -35.6300   19.8690 C.ar    1  LIG  -0.2723  -0.1500 
15    H5      -2.0662  -35.1073   19.3273 H       1  LIG   0.1522   0.1500 
16    C9      -0.4670  -36.5450   19.2400 C.ar    1  LIG   0.4373   0.1600 
17    H6      -0.5947  -36.7554   18.1915 H       1  LIG   0.0280   0.1500 
18    N3       0.5220  -37.2120   19.8740 N.ar    1  LIG  -0.6893  -0.6200 
19    C10      0.7040  -36.9790   21.1800 C.ar    1  LIG   0.6480   0.4100 
20    N4       1.7670  -37.6730   21.8260 N.pl3   1  LIG  -0.6924  -0.3690 
21    C11      2.7540  -36.8570   22.5840 C.ar    1  LIG   0.5805   0.4100 
22    C12      2.9040  -34.5090   25.6010 C.3     1  LIG  -0.0620   0.1435 
23    H7       2.2235  -33.7630   25.2820 H       1  LIG   0.0570   0.0000 
24    H8       2.4436  -35.1154   26.3371 H       1  LIG   0.0495   0.0000 
25    H9       3.7654  -34.0491   26.0108 H       1  LIG   0.0519   0.0000 
26    O1      -1.2400  -35.9060   23.9770 O.2     1  LIG  -0.6361  -0.5700 
27    C13      2.3440  -38.7570   21.0360 C.3     1  LIG   0.1354   0.0690 
28    H10      3.1238  -38.3754   20.4296 H       1  LIG   0.0981   0.1000 
29    C14      2.9380  -39.8900   21.8010 C.3     1  LIG  -0.1181  -0.2000 
30    H11      3.8890  -40.1268   21.3997 H       1  LIG   0.0732   0.1000 
31    H12      3.0430  -39.6129   22.8177 H       1  LIG   0.0789   0.1000 
32    C15      1.6390  -40.0610   21.0880 C.3     1  LIG  -0.1196  -0.2000 
33    H13      0.6832  -39.9283   21.5242 H       1  LIG   0.0807   0.1000 
34    H14      1.5292  -40.4423   20.1061 H       1  LIG   0.0733   0.1000 
@<TRIPOS>BOND
1     2     1     ar
2     3     2     1
3     4     2     ar
4     5     4     1
5     6     4     ar
6     7     6     ar
7     8     7     1
8     9     8     1
9     10    8     1
10    11    10    1
11    12    11    ar
12    13    12    1
13    14    12    ar
14    15    14    1
15    16    14    ar
16    17    16    1
17    18    16    ar
18    19    11    ar
19    19    18    ar
20    20    19    1
21    21    1     ar
22    21    7     ar
23    21    20    1
24    22    6     1
25    23    22    1
26    24    22    1
27    25    22    1
28    26    10    2
29    27    20    1
30    28    27    1
31    29    27    1
32    30    29    1
33    31    29    1
34    32    27    1
35    32    29    1
36    33    32    1
37    34    32    1
@<TRIPOS>SUBSTRUCTURE
1   LIG    1    
 
########## Name        : 1VRT.lig
########## Description : AM1BCC_CHARGES =  -0.0002 ORIGINAL_CHARGES =  -0.0000

@<TRIPOS>MOLECULE
1VRT.lig
34    37    1     0     0    
SMALL
USER_CHARGES
@<TRIPOS>ATOM
1     N1       4.0540  -36.9310   22.2210 N.ar    1  LIG  -0.6650  -0.6200 
2     C1       4.9660  -36.2380   22.9390 C.ar    1  LIG   0.3947   0.1600 
3     H1       6.0082  -36.2811   22.6707 H       1  LIG   0.0281   0.1500 
4     C2       4.6240  -35.4500   24.0360 C.ar    1  LIG  -0.2334  -0.1500 
5     H2       5.3884  -34.9151   24.5740 H       1  LIG   0.1480   0.1500 
6     C3       3.3050  -35.3690   24.4150 C.ar    1  LIG  -0.0698  -0.1435 
7     C4       2.3460  -36.0770   23.6860 C.ar    1  LIG  -0.0398   0.1170 
8     N2       0.9890  -36.0280   24.1030 N.am    1  LIG  -0.4596  -0.5470 
9     H3       0.7643  -35.9928   25.0860 H       1  LIG   0.3311   0.3700 
10    C5      -0.1450  -36.0180   23.4080 C.2     1  LIG   0.7361   0.5438 
11    C6      -0.1190  -36.0770   21.8860 C.ar    1  LIG  -0.2550   0.0862 
12    C7      -1.1230  -35.3990   21.1890 C.ar    1  LIG  -0.0321  -0.1500 
13    H4      -1.7552  -34.6955   21.7041 H       1  LIG   0.1623   0.1500 
14    C8      -1.2960  -35.6300   19.8690 C.ar    1  LIG  -0.2723  -0.1500 
15    H5      -2.0662  -35.1073   19.3273 H       1  LIG   0.1522   0.1500 
16    C9      -0.4670  -36.5450   19.2400 C.ar    1  LIG   0.4373   0.1600 
17    H6      -0.5947  -36.7554   18.1915 H       1  LIG   0.0280   0.1500 
18    N3       0.5220  -37.2120   19.8740 N.ar    1  LIG  -0.6893  -0.6200 
19    C10      0.7040  -36.9790   21.1800 C.ar    1  LIG   0.6480   0.4100 
20    N4       1.7670  -37.6730   21.8260 N.pl3   1  LIG  -0.6924  -0.3690 
21    C11      2.7540  -36.8570   22.5840 C.ar    1  LIG   0.5805   0.4100 
22    C12      2.9040  -34.5090   25.6010 C.3     1  LIG  -0.0620   0.1435 
23    H7       2.2235  -33.7630   25.2820 H       1  LIG   0.0570   0.0000 
24    H8       2.4436  -35.1154   26.3371 H       1  LIG   0.0495   0.0000 
25    H9       3.7654  -34.0491   26.0108 H       1  LIG   0.0519   0.0000 
26    O1      -1.2400  -35.9060   23.9770 O.2     1  LIG  -0.6361  -0.5700 
27    C13      2.3440  -38.7570   21.0360 C.3     1  LIG   0.1354   0.0690 
28    H10      3.1238  -38.3754   20.4296 H       1  LIG   0.0981   0.1000 
29    C14      2.9380  -39.8900   21.8010 C.3     1  LIG  -0.1181  -0.2000 
30    H11      3.8890  -40.1268   21.3997 H       1  LIG   0.0732   0.1000 
31    H12      3.0430  -39.6129   22.8177 H       1  LIG   0.0789   0.1000 
32    C15      1.6390  -40.0610   21.0880 C.3     1  LIG  -0.1196  -0.2000 
33    H13      0.6832  -39.9283   21.5242 H       1  LIG   0.0807   0.1000 
34    H14      1.5292  -40.4423   20.1061 H       1  LIG   0.0733   0.1000 
@<TRIPOS>BOND
1     2     1     ar
2     3     2     1
3     4     2     ar
4     5     4     1
5     6     4     ar
6     7     6     ar
7     8     7     1
8     9     8     1
9     10    8     1
10    11    10    1
11    12    11    ar
12    13    12    1
13    14    12    ar
14    15    14    1
15    16    14    ar
16    17    16    1
17    18    16    ar
18    19    11    ar
19    19    18    ar
20    20    19    1
21    21    1     ar
22    21    7     ar
23    21    20    1
24    22    6     1
25    23    22    1
26    24    22    1
27    25    22    1
28    26    10    2
29    27    20    1
30    28    27    1
31    29    27    1
32    30    29    1
33    31    29    1
34    32    27    1
35    32    29    1
36    33    32    1
37    34    32    1
@<TRIPOS>SUBSTRUCTURE
1   LIG    1    
 
########## Name        : 1VRT.lig
########## Description : AM1BCC_CHARGES =  -0.0002 ORIGINAL_CHARGES =  -0.0000

@<TRIPOS>MOLECULE
1VRT.lig
34    37    1     0     0    
SMALL
USER_CHARGES
@<TRIPOS>ATOM
1     N1       4.0540  -36.9310   22.2210 N.ar    1  LIG  -0.6650  -0.6200 
2     C1       4.9660  -36.2380   22.9390 C.ar    1  LIG   0.3947   0.1600 
3     H1       6.0082  -36.2811   22.6707 H       1  LIG   0.0281   0.1500 
4     C2       4.6240  -35.4500   24.0360 C.ar    1  LIG  -0.2334  -0.1500 
5     H2       5.3884  -34.9151   24.5740 H       1  LIG   0.1480   0.1500 
6     C3       3.3050  -35.3690   24.4150 C.ar    1  LIG  -0.0698  -0.1435 
7     C4       2.3460  -36.0770   23.6860 C.ar    1  LIG  -0.0398   0.1170 
8     N2       0.9890  -36.0280   24.1030 N.am    1  LIG  -0.4596  -0.5470 
9     H3       0.7643  -35.9928   25.0860 H       1  LIG   0.3311   0.3700 
10    C5      -0.1450  -36.0180   23.4080 C.2     1  LIG   0.7361   0.5438 
11    C6      -0.1190  -36.0770   21.8860 C.ar    1  LIG  -0.2550   0.0862 
12    C7      -1.1230  -35.3990   21.1890 C.ar    1  LIG  -0.0321  -0.1500 
13    H4      -1.7552  -34.6955   21.7041 H       1  LIG   0.1623   0.1500 
14    C8      -1.2960  -35.6300   19.8690 C.ar    1  LIG  -0.2723  -0.1500 
15    H5      -2.0662  -35.1073   19.3273 H       1  LIG   0.1522   0.1500 
16    C9      -0.4670  -36.5450   19.2400 C.ar    1  LIG   0.4373   0.1600 
17    H6      -0.5947  -36.7554   18.1915 H       1  LIG   0.0280   0.1500 
18    N3       0.5220  -37.2120   19.8740 N.ar    1  LIG  -0.6893  -0.6200 
19    C10      0.7040  -36.9790   21.1800 C.ar    1  LIG   0.6480   0.4100 
20    N4       1.7670  -37.6730   21.8260 N.pl3   1  LIG  -0.6924  -0.3690 
21    C11      2.7540  -36.8570   22.5840 C.ar    1  LIG   0.5805   0.4100 
22    C12      2.9040  -34.5090   25.6010 C.3     1  LIG  -0.0620   0.1435 
23    H7       2.2235  -33.7630   25.2820 H       1  LIG   0.0570   0.0000 
24    H8       2.4436  -35.1154   26.3371 H       1  LIG   0.0495   0.0000 
25    H9       3.7654  -34.0491   26.0108 H       1  LIG   0.0519   0.0000 
26    O1      -1.2400  -35.9060   23.9770 O.2     1  LIG  -0.6361  -0.5700 
27    C13      2.3440  -38.7570   21.0360 C.3     1  LIG   0.1354   0.0690 
28    H10      3.1238  -38.3754   20.4296 H       1  LIG   0.0981   0.1000 
29    C14      2.9380  -39.8900   21.8010 C.3     1  LIG  -0.1181  -0.2000 
30    H11      3.8890  -40.1268   21.3997 H       1  LIG   0.0732   0.1000 
31    H12      3.0430  -39.6129   22.8177 H       1  LIG   0.0789   0.1000 
32    C15      1.6390  -40.0610   21.0880 C.3     1  LIG  -0.1196  -0.2000 
33    H13      0.6832  -39.9283   21.5242 H       1  LIG   0.0807   0.1000 
34    H14      1.5292  -40.4423   20.1061 H       1  LIG   0.0733   0.1000 
@<TRIPOS>BOND
1     2     1     ar
2     3     2     1
3     4     2     ar
4     5     4     1
5     6     4     ar
6     7     6     ar
7     8     7     1
8     9     8     1
9     10    8     1
10    11    10    1
11    12    11    ar
12    13    12    1
13    14    12    ar
14    15    14    1
15    16    14    ar
16    17    16    1
17    18    16    ar
18    19    11    ar
19    19    18    ar
20    20    19    1
21    21    1     ar
22    21    7     ar
23    21    20    1
24    22    6     1
25    23    22    1
26    24    22    1
27    25    22    1
28    26    10    2
29    27    20    1
30    28    27    1
31    29    27    1
32    30    29    1
33    31    29    1
34    32    27    1
35    32    29    1
36    33    32    1
37    34    32    1
@<TRIPOS>SUBSTRUCTURE
1   LIG    1    
 
########## Name        : 1VRT.lig
########## Description : AM1BCC_CHARGES =  -0.0002 ORIGINAL_CHARGES =  -0.0000

@<TRIPOS>MOLECULE
1VRT.lig
34    37    1     0     0    
SMALL
USER_CHARGES
@<TRIPOS>ATOM
1     N1       4.0540  -36.9310   22.2210 N.ar    1  LIG  -0.6650  -0.6200 
2     C1       4.9660  -36.2380   22.9390 C.ar    1  LIG   0.3947   0.1600 
3     H1       6.0082  -36.2811   22.6707 H       1  LIG   0.0281   0.1500 
4     C2       4.6240  -35.4500   24.0360 C.ar    1  LIG  -0.2334  -0.1500 
5     H2       5.3884  -34.9151   24.5740 H       1  LIG   0.1480   0.1500 
6     C3       3.3050  -35.3690   24.4150 C.ar    1  LIG  -0.0698  -0.1435 
7     C4       2.3460  -36.0770   23.6860 C.ar    1  LIG  -0.0398   0.1170 
8     N2       0.9890  -36.0280   24.1030 N.am    1  LIG  -0.4596  -0.5470 
9     H3       0.7643  -35.9928   25.0860 H       1  LIG   0.3311   0.3700 
10    C5      -0.1450  -36.0180   23.4080 C.2     1  LIG   0.7361   0.5438 
11    C6      -0.1190  -36.0770   21.8860 C.ar    1  LIG  -0.2550   0.0862 
12    C7      -1.1230  -35.3990   21.1890 C.ar    1  LIG  -0.0321  -0.1500 
13    H4      -1.7552  -34.6955   21.7041 H       1  LIG   0.1623   0.1500 
14    C8      -1.2960  -35.6300   19.8690 C.ar    1  LIG  -0.2723  -0.1500 
15    H5      -2.0662  -35.1073   19.3273 H       1  LIG   0.1522   0.1500 
16    C9      -0.4670  -36.5450   19.2400 C.ar    1  LIG   0.4373   0.1600 
17    H6      -0.5947  -36.7554   18.1915 H       1  LIG   0.0280   0.1500 
18    N3       0.5220  -37.2120   19.8740 N.ar    1  LIG  -0.6893  -0.6200 
19    C10      0.7040  -36.9790   21.1800 C.ar    1  LIG   0.6480   0.4100 
20    N4       1.7670  -37.6730   21.8260 N.pl3   1  LIG  -0.6924  -0.3690 
21    C11      2.7540  -36.8570   22.5840 C.ar    1  LIG   0.5805   0.4100 
22    C12      2.9040  -34.5090   25.6010 C.3     1  LIG  -0.0620   0.1435 
23    H7       2.2235  -33.7630   25.2820 H       1  LIG   0.0570   0.0000 
24    H8       2.4436  -35.1154   26.3371 H       1  LIG   0.0495   0.0000 
25    H9       3.7654  -34.0491   26.0108 H       1  LIG   0.0519   0.0000 
26    O1      -1.2400  -35.9060   23.9770 O.2     1  LIG  -0.6361  -0.5700 
27    C13      2.3440  -38.7570   21.0360 C.3     1  LIG   0.1354   0.0690 
28    H10      3.1238  -38.3754   20.4296 H       1  LIG   0.0981   0.1000 
29    C14      2.9380  -39.8900   21.8010 C.3     1  LIG  -0.1181  -0.2000 
30    H11      3.8890  -40.1268   21.3997 H       1  LIG   0.0732   0.1000 
31    H12      3.0430  -39.6129   22.8177 H       1  LIG   0.0789   0.1000 
32    C15      1.6390  -40.0610   21.0880 C.3     1  LIG  -0.1196  -0.2000 
33    H13      0.6832  -39.9283   21.5242 H       1  LIG   0.0807   0.1000 
34    H14      1.5292  -40.4423   20.1061 H       1  LIG   0.0733   0.1000 
@<TRIPOS>BOND
1     2     1     ar
2     3     2     1
3     4     2     ar
4     5     4     1
5     6     4     ar
6     7     6     ar
7     8     7     1
8     9     8     1
9     10    8     1
10    11    10    1
11    12    11    ar
12    13    12    1
13    14    12    ar
14    15    14    1
15    16    14    ar
16    17    16    1
17    18    16    ar
18    19    11    ar
19    19    18    ar
20    20    19    1
21    21    1     ar
22    21    7     ar
23    21    20    1
24    22    6     1
25    23    22    1
26    24    22    1
27    25    22    1
28    26    10    2
29    27    20    1
30    28    27    1
31    29    27    1
32    30    29    1
33    31    29    1
34    32    27    1
35    32    29    1
36    33    32    1
37    34    32    1
@<TRIPOS>SUBSTRUCTURE
1   LIG    1    
 
########## Name        : 1VRT.lig
########## Description : AM1BCC_CHARGES =  -0.0002 ORIGINAL_CHARGES =  -0.0000

@<TRIPOS>MOLECULE
1VRT.lig
34    37    1     0     0    
SMALL
USER_CHARGES
@<TRIPOS>ATOM
1     N1       4.0540  -36.9310   22.2210 N.ar    1  LIG  -0.6650  -0.6200 
2     C1       4.9660  -36.2380   22.9390 C.ar    1  LIG   0.3947   0.1600 
3     H1       6.0082  -36.2811   22.6707 H       1  LIG   0.0281   0.1500 
4     C2       4.6240  -35.4500   24.0360 C.ar    1  LIG  -0.2334  -0.1500 
5     H2       5.3884  -34.9151   24.5740 H       1  LIG   0.1480   0.1500 
6     C3       3.3050  -35.3690   24.4150 C.ar    1  LIG  -0.0698  -0.1435 
7     C4       2.3460  -36.0770   23.6860 C.ar    1  LIG  -0.0398   0.1170 
8     N2       0.9890  -36.0280   24.1030 N.am    1  LIG  -0.4596  -0.5470 
9     H3       0.7643  -35.9928   25.0860 H       1  LIG   0.3311   0.3700 
10    C5      -0.1450  -36.0180   23.4080 C.2     1  LIG   0.7361   0.5438 
11    C6      -0.1190  -36.0770   21.8860 C.ar    1  LIG  -0.2550   0.0862 
12    C7      -1.1230  -35.3990   21.1890 C.ar    1  LIG  -0.0321  -0.1500 
13    H4      -1.7552  -34.6955   21.7041 H       1  LIG   0.1623   0.1500 
14    C8      -1.2960  -35.6300   19.8690 C.ar    1  LIG  -0.2723  -0.1500 
15    H5      -2.0662  -35.1073   19.3273 H       1  LIG   0.1522   0.1500 
16    C9      -0.4670  -36.5450   19.2400 C.ar    1  LIG   0.4373   0.1600 
17    H6      -0.5947  -36.7554   18.1915 H       1  LIG   0.0280   0.1500 
18    N3       0.5220  -37.2120   19.8740 N.ar    1  LIG  -0.6893  -0.6200 
19    C10      0.7040  -36.9790   21.1800 C.ar    1  LIG   0.6480   0.4100 
20    N4       1.7670  -37.6730   21.8260 N.pl3   1  LIG  -0.6924  -0.3690 
21    C11      2.7540  -36.8570   22.5840 C.ar    1  LIG   0.5805   0.4100 
22    C12      2.9040  -34.5090   25.6010 C.3     1  LIG  -0.0620   0.1435 
23    H7       2.2235  -33.7630   25.2820 H       1  LIG   0.0570   0.0000 
24    H8       2.4436  -35.1154   26.3371 H       1  LIG   0.0495   0.0000 
25    H9       3.7654  -34.0491   26.0108 H       1  LIG   0.0519   0.0000 
26    O1      -1.2400  -35.9060   23.9770 O.2     1  LIG  -0.6361  -0.5700 
27    C13      2.3440  -38.7570   21.0360 C.3     1  LIG   0.1354   0.0690 
28    H10      3.1238  -38.3754   20.4296 H       1  LIG   0.0981   0.1000 
29    C14      2.9380  -39.8900   21.8010 C.3     1  LIG  -0.1181  -0.2000 
30    H11      3.8890  -40.1268   21.3997 H       1  LIG   0.0732   0.1000 
31    H12      3.0430  -39.6129   22.8177 H       1  LIG   0.0789   0.1000 
32    C15      1.6390  -40.0610   21.0880 C.3     1  LIG  -0.1196  -0.2000 
33    H13      0.6832  -39.9283   21.5242 H       1  LIG   0.0807   0.1000 
34    H14      1.5292  -40.4423   20.1061 H       1  LIG   0.0733   0.1000 
@<TRIPOS>BOND
1     2     1     ar
2     3     2     1
3     4     2     ar
4     5     4     1
5     6     4     ar
6     7     6     ar
7     8     7     1
8     9     8     1
9     10    8     1
10    11    10    1
11    12    11    ar
12    13    12    1
13    14    12    ar
14    15    14    1
15    16    14    ar
16    17    16    1
17    18    16    ar
18    19    11    ar
19    19    18    ar
20    20    19    1
21    21    1     ar
22    21    7     ar
23    21    20    1
24    22    6     1
25    23    22    1
26    24    22    1
27    25    22    1
28    26    10    2
29    27    20    1
30    28    27    1
31    29    27    1
32    30    29    1
33    31    29    1
34    32    27    1
35    32    29    1
36    33    32    1
37    34    32    1
@<TRIPOS>SUBSTRUCTURE
1   LIG    1    
 
########## Name        : 1VRT.lig
########## Description : AM1BCC_CHARGES =  -0.0002 ORIGINAL_CHARGES =  -0.0000

@<TRIPOS>MOLECULE
1VRT.lig
34    37    1     0     0    
SMALL
USER_CHARGES
@<TRIPOS>ATOM
1     N1       4.0540  -36.9310   22.2210 N.ar    1  LIG  -0.6650  -0.6200 
2     C1       4.9660  -36.2380   22.9390 C.ar    1  LIG   0.3947   0.1600 
3     H1       6.0082  -36.2811   22.6707 H       1  LIG   0.0281   0.1500 
4     C2       4.6240  -35.4500   24.0360 C.ar    1  LIG  -0.2334  -0.1500 
5     H2       5.3884  -34.9151   24.5740 H       1  LIG   0.1480   0.1500 
6     C3       3.3050  -35.3690   24.4150 C.ar    1  LIG  -0.0698  -0.1435 
7     C4       2.3460  -36.0770   23.6860 C.ar    1  LIG  -0.0398   0.1170 
8     N2       0.9890  -36.0280   24.1030 N.am    1  LIG  -0.4596  -0.5470 
9     H3       0.7643  -35.9928   25.0860 H       1  LIG   0.3311   0.3700 
10    C5      -0.1450  -36.0180   23.4080 C.2     1  LIG   0.7361   0.5438 
11    C6      -0.1190  -36.0770   21.8860 C.ar    1  LIG  -0.2550   0.0862 
12    C7      -1.1230  -35.3990   21.1890 C.ar    1  LIG  -0.0321  -0.1500 
13    H4      -1.7552  -34.6955   21.7041 H       1  LIG   0.1623   0.1500 
14    C8      -1.2960  -35.6300   19.8690 C.ar    1  LIG  -0.2723  -0.1500 
15    H5      -2.0662  -35.1073   19.3273 H       1  LIG   0.1522   0.1500 
16    C9      -0.4670  -36.5450   19.2400 C.ar    1  LIG   0.4373   0.1600 
17    H6      -0.5947  -36.7554   18.1915 H       1  LIG   0.0280   0.1500 
18    N3       0.5220  -37.2120   19.8740 N.ar    1  LIG  -0.6893  -0.6200 
19    C10      0.7040  -36.9790   21.1800 C.ar    1  LIG   0.6480   0.4100 
20    N4       1.7670  -37.6730   21.8260 N.pl3   1  LIG  -0.6924  -0.3690 
21    C11      2.7540  -36.8570   22.5840 C.ar    1  LIG   0.5805   0.4100 
22    C12      2.9040  -34.5090   25.6010 C.3     1  LIG  -0.0620   0.1435 
23    H7       2.2235  -33.7630   25.2820 H       1  LIG   0.0570   0.0000 
24    H8       2.4436  -35.1154   26.3371 H       1  LIG   0.0495   0.0000 
25    H9       3.7654  -34.0491   26.0108 H       1  LIG   0.0519   0.0000 
26    O1      -1.2400  -35.9060   23.9770 O.2     1  LIG  -0.6361  -0.5700 
27    C13      2.3440  -38.7570   21.0360 C.3     1  LIG   0.1354   0.0690 
28    H10      3.1238  -38.3754   20.4296 H       1  LIG   0.0981   0.1000 
29    C14      2.9380  -39.8900   21.8010 C.3     1  LIG  -0.1181  -0.2000 
30    H11      3.8890  -40.1268   21.3997 H       1  LIG   0.0732   0.1000 
31    H12      3.0430  -39.6129   22.8177 H       1  LIG   0.0789   0.1000 
32    C15      1.6390  -40.0610   21.0880 C.3     1  LIG  -0.1196  -0.2000 
33    H13      0.6832  -39.9283   21.5242 H       1  LIG   0.0807   0.1000 
34    H14      1.5292  -40.4423   20.1061 H       1  LIG   0.0733   0.1000 
@<TRIPOS>BOND
1     2     1     ar
2     3     2     1
3     4     2     ar
4     5     4     1
5     6     4     ar
6     7     6     ar
7     8     7     1
8     9     8     1
9     10    8     1
10    11    10    1
11    12    11    ar
12    13    12    1
13    14    12    ar
14    15    14    1
15    16    14    ar
16    17    16    1
17    18    16    ar
18    19    11    ar
19    19    18    ar
20    20    19    1
21    21    1     ar
22    21    7     ar
23    21    20    1
24    22    6     1
25    23    22    1
26    24    22    1
27    25    22    1
28    26    10    2
29    27    20    1
30    28    27    1
31    29    27    1
32    30    29    1
33    31    29    1
34    32    27    1
35    32    29    1
36    33    32    1
37    34    32    1
@<TRIPOS>SUBSTRUCTURE
1   LIG    1    
 
########## Name        : 1VRT.lig
########## Description : AM1BCC_CHARGES =  -0.0002 ORIGINAL_CHARGES =  -0.0000

@<TRIPOS>MOLECULE
1VRT.lig
34    37    1     0     0    
SMALL
USER_CHARGES
@<TRIPOS>ATOM
1     N1       4.0540  -36.9310   22.2210 N.ar    1  LIG  -0.6650  -0.6200 
2     C1       4.9660  -36.2380   22.9390 C.ar    1  LIG   0.3947   0.1600 
3     H1       6.0082  -36.2811   22.6707 H       1  LIG   0.0281   0.1500 
4     C2       4.6240  -35.4500   24.0360 C.ar    1  LIG  -0.2334  -0.1500 
5     H2       5.3884  -34.9151   24.5740 H       1  LIG   0.1480   0.1500 
6     C3       3.3050  -35.3690   24.4150 C.ar    1  LIG  -0.0698  -0.1435 
7     C4       2.3460  -36.0770   23.6860 C.ar    1  LIG  -0.0398   0.1170 
8     N2       0.9890  -36.0280   24.1030 N.am    1  LIG  -0.4596  -0.5470 
9     H3       0.7643  -35.9928   25.0860 H       1  LIG   0.3311   0.3700 
10    C5      -0.1450  -36.0180   23.4080 C.2     1  LIG   0.7361   0.5438 
11    C6      -0.1190  -36.0770   21.8860 C.ar    1  LIG  -0.2550   0.0862 
12    C7      -1.1230  -35.3990   21.1890 C.ar    1  LIG  -0.0321  -0.1500 
13    H4      -1.7552  -34.6955   21.7041 H       1  LIG   0.1623   0.1500 
14    C8      -1.2960  -35.6300   19.8690 C.ar    1  LIG  -0.2723  -0.1500 
15    H5      -2.0662  -35.1073   19.3273 H       1  LIG   0.1522   0.1500 
16    C9      -0.4670  -36.5450   19.2400 C.ar    1  LIG   0.4373   0.1600 
17    H6      -0.5947  -36.7554   18.1915 H       1  LIG   0.0280   0.1500 
18    N3       0.5220  -37.2120   19.8740 N.ar    1  LIG  -0.6893  -0.6200 
19    C10      0.7040  -36.9790   21.1800 C.ar    1  LIG   0.6480   0.4100 
20    N4       1.7670  -37.6730   21.8260 N.pl3   1  LIG  -0.6924  -0.3690 
21    C11      2.7540  -36.8570   22.5840 C.ar    1  LIG   0.5805   0.4100 
22    C12      2.9040  -34.5090   25.6010 C.3     1  LIG  -0.0620   0.1435 
23    H7       2.2235  -33.7630   25.2820 H       1  LIG   0.0570   0.0000 
24    H8       2.4436  -35.1154   26.3371 H       1  LIG   0.0495   0.0000 
25    H9       3.7654  -34.0491   26.0108 H       1  LIG   0.0519   0.0000 
26    O1      -1.2400  -35.9060   23.9770 O.2     1  LIG  -0.6361  -0.5700 
27    C13      2.3440  -38.7570   21.0360 C.3     1  LIG   0.1354   0.0690 
28    H10      3.1238  -38.3754   20.4296 H       1  LIG   0.0981   0.1000 
29    C14      2.9380  -39.8900   21.8010 C.3     1  LIG  -0.1181  -0.2000 
30    H11      3.8890  -40.1268   21.3997 H       1  LIG   0.0732   0.1000 
31    H12      3.0430  -39.6129   22.8177 H       1  LIG   0.0789   0.1000 
32    C15      1.6390  -40.0610   21.0880 C.3     1  LIG  -0.1196  -0.2000 
33    H13      0.6832  -39.9283   21.5242 H       1  LIG   0.0807   0.1000 
34    H14      1.5292  -40.4423   20.1061 H       1  LIG   0.0733   0.1000 
@<TRIPOS>BOND
1     2     1     ar
2     3     2     1
3     4     2     ar
4     5     4     1
5     6     4     ar
6     7     6     ar
7     8     7     1
8     9     8     1
9     10    8     1
10    11    10    1
11    12    11    ar
12    13    12    1
13    14    12    ar
14    15    14    1
15    16    14    ar
16    17    16    1
17    18    16    ar
18    19    11    ar
19    19    18    ar
20    20    19    1
21    21    1     ar
22    21    7     ar
23    21    20    1
24    22    6     1
25    23    22    1
26    24    22    1
27    25    22    1
28    26    10    2
29    27    20    1
30    28    27    1
31    29    27    1
32    30    29    1
33    31    29    1
34    32    27    1
35    32    29    1
36    33    32    1
37    34    32    1
@<TRIPOS>SUBSTRUCTURE
1   LIG    1    
 
########## Name        : 1VRT.lig
########## Description : AM1BCC_CHARGES =  -0.0002 ORIGINAL_CHARGES =  -0.0000

@<TRIPOS>MOLECULE
1VRT.lig
34    37    1     0     0    
SMALL
USER_CHARGES
@<TRIPOS>ATOM
1     N1       4.0540  -36.9310   22.2210 N.ar    1  LIG  -0.6650  -0.6200 
2     C1       4.9660  -36.2380   22.9390 C.ar    1  LIG   0.3947   0.1600 
3     H1       6.0082  -36.2811   22.6707 H       1  LIG   0.0281   0.1500 
4     C2       4.6240  -35.4500   24.0360 C.ar    1  LIG  -0.2334  -0.1500 
5     H2       5.3884  -34.9151   24.5740 H       1  LIG   0.1480   0.1500 
6     C3       3.3050  -35.3690   24.4150 C.ar    1  LIG  -0.0698  -0.1435 
7     C4       2.3460  -36.0770   23.6860 C.ar    1  LIG  -0.0398   0.1170 
8     N2       0.9890  -36.0280   24.1030 N.am    1  LIG  -0.4596  -0.5470 
9     H3       0.7643  -35.9928   25.0860 H       1  LIG   0.3311   0.3700 
10    C5      -0.1450  -36.0180   23.4080 C.2     1  LIG   0.7361   0.5438 
11    C6      -0.1190  -36.0770   21.8860 C.ar    1  LIG  -0.2550   0.0862 
12    C7      -1.1230  -35.3990   21.1890 C.ar    1  LIG  -0.0321  -0.1500 
13    H4      -1.7552  -34.6955   21.7041 H       1  LIG   0.1623   0.1500 
14    C8      -1.2960  -35.6300   19.8690 C.ar    1  LIG  -0.2723  -0.1500 
15    H5      -2.0662  -35.1073   19.3273 H       1  LIG   0.1522   0.1500 
16    C9      -0.4670  -36.5450   19.2400 C.ar    1  LIG   0.4373   0.1600 
17    H6      -0.5947  -36.7554   18.1915 H       1  LIG   0.0280   0.1500 
18    N3       0.5220  -37.2120   19.8740 N.ar    1  LIG  -0.6893  -0.6200 
19    C10      0.7040  -36.9790   21.1800 C.ar    1  LIG   0.6480   0.4100 
20    N4       1.7670  -37.6730   21.8260 N.pl3   1  LIG  -0.6924  -0.3690 
21    C11      2.7540  -36.8570   22.5840 C.ar    1  LIG   0.5805   0.4100 
22    C12      2.9040  -34.5090   25.6010 C.3     1  LIG  -0.0620   0.1435 
23    H7       2.2235  -33.7630   25.2820 H       1  LIG   0.0570   0.0000 
24    H8       2.4436  -35.1154   26.3371 H       1  LIG   0.0495   0.0000 
25    H9       3.7654  -34.0491   26.0108 H       1  LIG   0.0519   0.0000 
26    O1      -1.2400  -35.9060   23.9770 O.2     1  LIG  -0.6361  -0.5700 
27    C13      2.3440  -38.7570   21.0360 C.3     1  LIG   0.1354   0.0690 
28    H10      3.1238  -38.3754   20.4296 H       1  LIG   0.0981   0.1000 
29    C14      2.9380  -39.8900   21.8010 C.3     1  LIG  -0.1181  -0.2000 
30    H11      3.8890  -40.1268   21.3997 H       1  LIG   0.0732   0.1000 
31    H12      3.0430  -39.6129   22.8177 H       1  LIG   0.0789   0.1000 
32    C15      1.6390  -40.0610   21.0880 C.3     1  LIG  -0.1196  -0.2000 
33    H13      0.6832  -39.9283   21.5242 H       1  LIG   0.0807   0.1000 
34    H14      1.5292  -40.4423   20.1061 H       1  LIG   0.0733   0.1000 
@<TRIPOS>BOND
1     2     1     ar
2     3     2     1
3     4     2     ar
4     5     4     1
5     6     4     ar
6     7     6     ar
7     8     7     1
8     9     8     1
9     10    8     1
10    11    10    1
11    12    11    ar
12    13    12    1
13    14    12    ar
14    15    14    1
15    16    14    ar
16    17    16    1
17    18    16    ar
18    19    11    ar
19    19    18    ar
20    20    19    1
21    21    1     ar
22    21    7     ar
23    21    20    1
24    22    6     1
25    23    22    1
26    24    22    1
27    25    22    1
28    26    10    2
29    27    20    1
30    28    27    1
31    29    27    1
32    30    29    1
33    31    29    1
34    32    27    1
35    32    29    1
36    33    32    1
37    34    32    1
@<TRIPOS>SUBSTRUCTURE
1   LIG    1    
 
########## Name        : 1VRT.lig
########## Description : AM1BCC_CHARGES =  -0.0002 ORIGINAL_CHARGES =  -0.0000

@<TRIPOS>MOLECULE
1VRT.lig
34    37    1     0     0    
SMALL
USER_CHARGES
@<TRIPOS>ATOM
1     N1       4.0540  -36.9310   22.2210 N.ar    1  LIG  -0.6650  -0.6200 
2     C1       4.9660  -36.2380   22.9390 C.ar    1  LIG   0.3947   0.1600 
3     H1       6.0082  -36.2811   22.6707 H       1  LIG   0.0281   0.1500 
4     C2       4.6240  -35.4500   24.0360 C.ar    1  LIG  -0.2334  -0.1500 
5     H2       5.3884  -34.9151   24.5740 H       1  LIG   0.1480   0.1500 
6     C3       3.3050  -35.3690   24.4150 C.ar    1  LIG  -0.0698  -0.1435 
7     C4       2.3460  -36.0770   23.6860 C.ar    1  LIG  -0.0398   0.1170 
8     N2       0.9890  -36.0280   24.1030 N.am    1  LIG  -0.4596  -0.5470 
9     H3       0.7643  -35.9928   25.0860 H       1  LIG   0.3311   0.3700 
10    C5      -0.1450  -36.0180   23.4080 C.2     1  LIG   0.7361   0.5438 
11    C6      -0.1190  -36.0770   21.8860 C.ar    1  LIG  -0.2550   0.0862 
12    C7      -1.1230  -35.3990   21.1890 C.ar    1  LIG  -0.0321  -0.1500 
13    H4      -1.7552  -34.6955   21.7041 H       1  LIG   0.1623   0.1500 
14    C8      -1.2960  -35.6300   19.8690 C.ar    1  LIG  -0.2723  -0.1500 
15    H5      -2.0662  -35.1073   19.3273 H       1  LIG   0.1522   0.1500 
16    C9      -0.4670  -36.5450   19.2400 C.ar    1  LIG   0.4373   0.1600 
17    H6      -0.5947  -36.7554   18.1915 H       1  LIG   0.0280   0.1500 
18    N3       0.5220  -37.2120   19.8740 N.ar    1  LIG  -0.6893  -0.6200 
19    C10      0.7040  -36.9790   21.1800 C.ar    1  LIG   0.6480   0.4100 
20    N4       1.7670  -37.6730   21.8260 N.pl3   1  LIG  -0.6924  -0.3690 
21    C11      2.7540  -36.8570   22.5840 C.ar    1  LIG   0.5805   0.4100 
22    C12      2.9040  -34.5090   25.6010 C.3     1  LIG  -0.0620   0.1435 
23    H7       2.2235  -33.7630   25.2820 H       1  LIG   0.0570   0.0000 
24    H8       2.4436  -35.1154   26.3371 H       1  LIG   0.0495   0.0000 
25    H9       3.7654  -34.0491   26.0108 H       1  LIG   0.0519   0.0000 
26    O1      -1.2400  -35.9060   23.9770 O.2     1  LIG  -0.6361  -0.5700 
27    C13      2.3440  -38.7570   21.0360 C.3     1  LIG   0.1354   0.0690 
28    H10      3.1238  -38.3754   20.4296 H       1  LIG   0.0981   0.1000 
29    C14      2.9380  -39.8900   21.8010 C.3     1  LIG  -0.1181  -0.2000 
30    H11      3.8890  -40.1268   21.3997 H       1  LIG   0.0732   0.1000 
31    H12      3.0430  -39.6129   22.8177 H       1  LIG   0.0789   0.1000 
32    C15      1.6390  -40.0610   21.0880 C.3     1  LIG  -0.1196  -0.2000 
33    H13      0.6832  -39.9283   21.5242 H       1  LIG   0.0807   0.1000 
34    H14      1.5292  -40.4423   20.1061 H       1  LIG   0.0733   0.1000 
@<TRIPOS>BOND
1     2     1     ar
2     3     2     1
3     4     2     ar
4     5     4     1
5     6     4     ar
6     7     6     ar
7     8     7     1
8     9     8     1
9     10    8     1
10    11    10    1
11    12    11    ar
12    13    12    1
13    14    12    ar
14    15    14    1
15    16    14    ar
16    17    16    1
17    18    16    ar
18    19    11    ar
19    19    18    ar
20    20    19    1
21    21    1     ar
22    21    7     ar
23    21    20    1
24    22    6     1
25    23    22    1
26    24    22    1
27    25    22    1
28    26    10    2
29    27    20    1
30    28    27    1
31    29    27    1
32    30    29    1
33    31    29    1
34    32    27    1
35    32    29    1
36    33    32    1
37    34    32    1
@<TRIPOS>SUBSTRUCTURE
1   LIG    1    
 
########## Name        : 1VRT.lig
########## Description : AM1BCC_CHARGES =  -0.0002 ORIGINAL_CHARGES =  -0.0000

@<TRIPOS>MOLECULE
1VRT.lig
34    37    1     0     0    
SMALL
USER_CHARGES
@<TRIPOS>ATOM
1     N1       4.0540  -36.9310   22.2210 N.ar    1  LIG  -0.6650  -0.6200 
2     C1       4.9660  -36.2380   22.9390 C.ar    1  LIG   0.3947   0.1600 
3     H1       6.0082  -36.2811   22.6707 H       1  LIG   0.0281   0.1500 
4     C2       4.6240  -35.4500   24.0360 C.ar    1  LIG  -0.2334  -0.1500 
5     H2       5.3884  -34.9151   24.5740 H       1  LIG   0.1480   0.1500 
6     C3       3.3050  -35.3690   24.4150 C.ar    1  LIG  -0.0698  -0.1435 
7     C4       2.3460  -36.0770   23.6860 C.ar    1  LIG  -0.0398   0.1170 
8     N2       0.9890  -36.0280   24.1030 N.am    1  LIG  -0.4596  -0.5470 
9     H3       0.7643  -35.9928   25.0860 H       1  LIG   0.3311   0.3700 
10    C5      -0.1450  -36.0180   23.4080 C.2     1  LIG   0.7361   0.5438 
11    C6      -0.1190  -36.0770   21.8860 C.ar    1  LIG  -0.2550   0.0862 
12    C7      -1.1230  -35.3990   21.1890 C.ar    1  LIG  -0.0321  -0.1500 
13    H4      -1.7552  -34.6955   21.7041 H       1  LIG   0.1623   0.1500 
14    C8      -1.2960  -35.6300   19.8690 C.ar    1  LIG  -0.2723  -0.1500 
15    H5      -2.0662  -35.1073   19.3273 H       1  LIG   0.1522   0.1500 
16    C9      -0.4670  -36.5450   19.2400 C.ar    1  LIG   0.4373   0.1600 
17    H6      -0.5947  -36.7554   18.1915 H       1  LIG   0.0280   0.1500 
18    N3       0.5220  -37.2120   19.8740 N.ar    1  LIG  -0.6893  -0.6200 
19    C10      0.7040  -36.9790   21.1800 C.ar    1  LIG   0.6480   0.4100 
20    N4       1.7670  -37.6730   21.8260 N.pl3   1  LIG  -0.6924  -0.3690 
21    C11      2.7540  -36.8570   22.5840 C.ar    1  LIG   0.5805   0.4100 
22    C12      2.9040  -34.5090   25.6010 C.3     1  LIG  -0.0620   0.1435 
23    H7       2.2235  -33.7630   25.2820 H       1  LIG   0.0570   0.0000 
24    H8       2.4436  -35.1154   26.3371 H       1  LIG   0.0495   0.0000 
25    H9       3.7654  -34.0491   26.0108 H       1  LIG   0.0519   0.0000 
26    O1      -1.2400  -35.9060   23.9770 O.2     1  LIG  -0.6361  -0.5700 
27    C13      2.3440  -38.7570   21.0360 C.3     1  LIG   0.1354   0.0690 
28    H10      3.1238  -38.3754   20.4296 H       1  LIG   0.0981   0.1000 
29    C14      2.9380  -39.8900   21.8010 C.3     1  LIG  -0.1181  -0.2000 
30    H11      3.8890  -40.1268   21.3997 H       1  LIG   0.0732   0.1000 
31    H12      3.0430  -39.6129   22.8177 H       1  LIG   0.0789   0.1000 
32    C15      1.6390  -40.0610   21.0880 C.3     1  LIG  -0.1196  -0.2000 
33    H13      0.6832  -39.9283   21.5242 H       1  LIG   0.0807   0.1000 
34    H14      1.5292  -40.4423   20.1061 H       1  LIG   0.0733   0.1000 
@<TRIPOS>BOND
1     2     1     ar
2     3     2     1
3     4     2     ar
4     5     4     1
5     6     4     ar
6     7     6     ar
7     8     7     1
8     9     8     1
9     10    8     1
10    11    10    1
11    12    11    ar
12    13    12    1
13    14    12    ar
14    15    14    1
15    16    14    ar
16    17    16    1
17    18    16    ar
18    19    11    ar
19    19    18    ar
20    20    19    1
21    21    1     ar
22    21    7     ar
23    21    20    1
24    22    6     1
25    23    22    1
26    24    22    1
27    25    22    1
28    26    10    2
29    27    20    1
30    28    27    1
31    29    27    1
32    30    29    1
33    31    29    1
34    32    27    1
35    32    29    1
36    33    32    1
37    34    32    1
@<TRIPOS>SUBSTRUCTURE
1   LIG    1    
 
########## Name        : 1VRT.lig
########## Description : AM1BCC_CHARGES =  -0.0002 ORIGINAL_CHARGES =  -0.0000

@<TRIPOS>MOLECULE
1VRT.lig
34    37    1     0     0    
SMALL
USER_CHARGES
@<TRIPOS>ATOM
1     N1       4.0540  -36.9310   22.2210 N.ar    1  LIG  -0.6650  -0.6200 
2     C1       4.9660  -36.2380   22.9390 C.ar    1  LIG   0.3947   0.1600 
3     H1       6.0082  -36.2811   22.6707 H       1  LIG   0.0281   0.1500 
4     C2       4.6240  -35.4500   24.0360 C.ar    1  LIG  -0.2334  -0.1500 
5     H2       5.3884  -34.9151   24.5740 H       1  LIG   0.1480   0.1500 
6     C3       3.3050  -35.3690   24.4150 C.ar    1  LIG  -0.0698  -0.1435 
7     C4       2.3460  -36.0770   23.6860 C.ar    1  LIG  -0.0398   0.1170 
8     N2       0.9890  -36.0280   24.1030 N.am    1  LIG  -0.4596  -0.5470 
9     H3       0.7643  -35.9928   25.0860 H       1  LIG   0.3311   0.3700 
10    C5      -0.1450  -36.0180   23.4080 C.2     1  LIG   0.7361   0.5438 
11    C6      -0.1190  -36.0770   21.8860 C.ar    1  LIG  -0.2550   0.0862 
12    C7      -1.1230  -35.3990   21.1890 C.ar    1  LIG  -0.0321  -0.1500 
13    H4      -1.7552  -34.6955   21.7041 H       1  LIG   0.1623   0.1500 
14    C8      -1.2960  -35.6300   19.8690 C.ar    1  LIG  -0.2723  -0.1500 
15    H5      -2.0662  -35.1073   19.3273 H       1  LIG   0.1522   0.1500 
16    C9      -0.4670  -36.5450   19.2400 C.ar    1  LIG   0.4373   0.1600 
17    H6      -0.5947  -36.7554   18.1915 H       1  LIG   0.0280   0.1500 
18    N3       0.5220  -37.2120   19.8740 N.ar    1  LIG  -0.6893  -0.6200 
19    C10      0.7040  -36.9790   21.1800 C.ar    1  LIG   0.6480   0.4100 
20    N4       1.7670  -37.6730   21.8260 N.pl3   1  LIG  -0.6924  -0.3690 
21    C11      2.7540  -36.8570   22.5840 C.ar    1  LIG   0.5805   0.4100 
22    C12      2.9040  -34.5090   25.6010 C.3     1  LIG  -0.0620   0.1435 
23    H7       2.2235  -33.7630   25.2820 H       1  LIG   0.0570   0.0000 
24    H8       2.4436  -35.1154   26.3371 H       1  LIG   0.0495   0.0000 
25    H9       3.7654  -34.0491   26.0108 H       1  LIG   0.0519   0.0000 
26    O1      -1.2400  -35.9060   23.9770 O.2     1  LIG  -0.6361  -0.5700 
27    C13      2.3440  -38.7570   21.0360 C.3     1  LIG   0.1354   0.0690 
28    H10      3.1238  -38.3754   20.4296 H       1  LIG   0.0981   0.1000 
29    C14      2.9380  -39.8900   21.8010 C.3     1  LIG  -0.1181  -0.2000 
30    H11      3.8890  -40.1268   21.3997 H       1  LIG   0.0732   0.1000 
31    H12      3.0430  -39.6129   22.8177 H       1  LIG   0.0789   0.1000 
32    C15      1.6390  -40.0610   21.0880 C.3     1  LIG  -0.1196  -0.2000 
33    H13      0.6832  -39.9283   21.5242 H       1  LIG   0.0807   0.1000 
34    H14      1.5292  -40.4423   20.1061 H       1  LIG   0.0733   0.1000 
@<TRIPOS>BOND
1     2     1     ar
2     3     2     1
3     4     2     ar
4     5     4     1
5     6     4     ar
6     7     6     ar
7     8     7     1
8     9     8     1
9     10    8     1
10    11    10    1
11    12    11    ar
12    13    12    1
13    14    12    ar
14    15    14    1
15    16    14    ar
16    17    16    1
17    18    16    ar
18    19    11    ar
19    19    18    ar
20    20    19    1
21    21    1     ar
22    21    7     ar
23    21    20    1
24    22    6     1
25    23    22    1
26    24    22    1
27    25    22    1
28    26    10    2
29    27    20    1
30    28    27    1
31    29    27    1
32    30    29    1
33    31    29    1
34    32    27    1
35    32    29    1
36    33    32    1
37    34    32    1
@<TRIPOS>SUBSTRUCTURE
1   LIG    1    
 
########## Name        : 1VRT.lig
########## Description : AM1BCC_CHARGES =  -0.0002 ORIGINAL_CHARGES =  -0.0000

@<TRIPOS>MOLECULE
1VRT.lig
34    37    1     0     0    
SMALL
USER_CHARGES
@<TRIPOS>ATOM
1     N1       4.0540  -36.9310   22.2210 N.ar    1  LIG  -0.6650  -0.6200 
2     C1       4.9660  -36.2380   22.9390 C.ar    1  LIG   0.3947   0.1600 
3     H1       6.0082  -36.2811   22.6707 H       1  LIG   0.0281   0.1500 
4     C2       4.6240  -35.4500   24.0360 C.ar    1  LIG  -0.2334  -0.1500 
5     H2       5.3884  -34.9151   24.5740 H       1  LIG   0.1480   0.1500 
6     C3       3.3050  -35.3690   24.4150 C.ar    1  LIG  -0.0698  -0.1435 
7     C4       2.3460  -36.0770   23.6860 C.ar    1  LIG  -0.0398   0.1170 
8     N2       0.9890  -36.0280   24.1030 N.am    1  LIG  -0.4596  -0.5470 
9     H3       0.7643  -35.9928   25.0860 H       1  LIG   0.3311   0.3700 
10    C5      -0.1450  -36.0180   23.4080 C.2     1  LIG   0.7361   0.5438 
11    C6      -0.1190  -36.0770   21.8860 C.ar    1  LIG  -0.2550   0.0862 
12    C7      -1.1230  -35.3990   21.1890 C.ar    1  LIG  -0.0321  -0.1500 
13    H4      -1.7552  -34.6955   21.7041 H       1  LIG   0.1623   0.1500 
14    C8      -1.2960  -35.6300   19.8690 C.ar    1  LIG  -0.2723  -0.1500 
15    H5      -2.0662  -35.1073   19.3273 H       1  LIG   0.1522   0.1500 
16    C9      -0.4670  -36.5450   19.2400 C.ar    1  LIG   0.4373   0.1600 
17    H6      -0.5947  -36.7554   18.1915 H       1  LIG   0.0280   0.1500 
18    N3       0.5220  -37.2120   19.8740 N.ar    1  LIG  -0.6893  -0.6200 
19    C10      0.7040  -36.9790   21.1800 C.ar    1  LIG   0.6480   0.4100 
20    N4       1.7670  -37.6730   21.8260 N.pl3   1  LIG  -0.6924  -0.3690 
21    C11      2.7540  -36.8570   22.5840 C.ar    1  LIG   0.5805   0.4100 
22    C12      2.9040  -34.5090   25.6010 C.3     1  LIG  -0.0620   0.1435 
23    H7       2.2235  -33.7630   25.2820 H       1  LIG   0.0570   0.0000 
24    H8       2.4436  -35.1154   26.3371 H       1  LIG   0.0495   0.0000 
25    H9       3.7654  -34.0491   26.0108 H       1  LIG   0.0519   0.0000 
26    O1      -1.2400  -35.9060   23.9770 O.2     1  LIG  -0.6361  -0.5700 
27    C13      2.3440  -38.7570   21.0360 C.3     1  LIG   0.1354   0.0690 
28    H10      3.1238  -38.3754   20.4296 H       1  LIG   0.0981   0.1000 
29    C14      2.9380  -39.8900   21.8010 C.3     1  LIG  -0.1181  -0.2000 
30    H11      3.8890  -40.1268   21.3997 H       1  LIG   0.0732   0.1000 
31    H12      3.0430  -39.6129   22.8177 H       1  LIG   0.0789   0.1000 
32    C15      1.6390  -40.0610   21.0880 C.3     1  LIG  -0.1196  -0.2000 
33    H13      0.6832  -39.9283   21.5242 H       1  LIG   0.0807   0.1000 
34    H14      1.5292  -40.4423   20.1061 H       1  LIG   0.0733   0.1000 
@<TRIPOS>BOND
1     2     1     ar
2     3     2     1
3     4     2     ar
4     5     4     1
5     6     4     ar
6     7     6     ar
7     8     7     1
8     9     8     1
9     10    8     1
10    11    10    1
11    12    11    ar
12    13    12    1
13    14    12    ar
14    15    14    1
15    16    14    ar
16    17    16    1
17    18    16    ar
18    19    11    ar
19    19    18    ar
20    20    19    1
21    21    1     ar
22    21    7     ar
23    21    20    1
24    22    6     1
25    23    22    1
26    24    22    1
27    25    22    1
28    26    10    2
29    27    20    1
30    28    27    1
31    29    27    1
32    30    29    1
33    31    29    1
34    32    27    1
35    32    29    1
36    33    32    1
37    34    32    1
@<TRIPOS>SUBSTRUCTURE
1   LIG    1    
 
########## Name        : 1VRT.lig
########## Description : AM1BCC_CHARGES =  -0.0002 ORIGINAL_CHARGES =  -0.0000

@<TRIPOS>MOLECULE
1VRT.lig
34    37    1     0     0    
SMALL
USER_CHARGES
@<TRIPOS>ATOM
1     N1       4.0540  -36.9310   22.2210 N.ar    1  LIG  -0.6650  -0.6200 
2     C1       4.9660  -36.2380   22.9390 C.ar    1  LIG   0.3947   0.1600 
3     H1       6.0082  -36.2811   22.6707 H       1  LIG   0.0281   0.1500 
4     C2       4.6240  -35.4500   24.0360 C.ar    1  LIG  -0.2334  -0.1500 
5     H2       5.3884  -34.9151   24.5740 H       1  LIG   0.1480   0.1500 
6     C3       3.3050  -35.3690   24.4150 C.ar    1  LIG  -0.0698  -0.1435 
7     C4       2.3460  -36.0770   23.6860 C.ar    1  LIG  -0.0398   0.1170 
8     N2       0.9890  -36.0280   24.1030 N.am    1  LIG  -0.4596  -0.5470 
9     H3       0.7643  -35.9928   25.0860 H       1  LIG   0.3311   0.3700 
10    C5      -0.1450  -36.0180   23.4080 C.2     1  LIG   0.7361   0.5438 
11    C6      -0.1190  -36.0770   21.8860 C.ar    1  LIG  -0.2550   0.0862 
12    C7      -1.1230  -35.3990   21.1890 C.ar    1  LIG  -0.0321  -0.1500 
13    H4      -1.7552  -34.6955   21.7041 H       1  LIG   0.1623   0.1500 
14    C8      -1.2960  -35.6300   19.8690 C.ar    1  LIG  -0.2723  -0.1500 
15    H5      -2.0662  -35.1073   19.3273 H       1  LIG   0.1522   0.1500 
16    C9      -0.4670  -36.5450   19.2400 C.ar    1  LIG   0.4373   0.1600 
17    H6      -0.5947  -36.7554   18.1915 H       1  LIG   0.0280   0.1500 
18    N3       0.5220  -37.2120   19.8740 N.ar    1  LIG  -0.6893  -0.6200 
19    C10      0.7040  -36.9790   21.1800 C.ar    1  LIG   0.6480   0.4100 
20    N4       1.7670  -37.6730   21.8260 N.pl3   1  LIG  -0.6924  -0.3690 
21    C11      2.7540  -36.8570   22.5840 C.ar    1  LIG   0.5805   0.4100 
22    C12      2.9040  -34.5090   25.6010 C.3     1  LIG  -0.0620   0.1435 
23    H7       2.2235  -33.7630   25.2820 H       1  LIG   0.0570   0.0000 
24    H8       2.4436  -35.1154   26.3371 H       1  LIG   0.0495   0.0000 
25    H9       3.7654  -34.0491   26.0108 H       1  LIG   0.0519   0.0000 
26    O1      -1.2400  -35.9060   23.9770 O.2     1  LIG  -0.6361  -0.5700 
27    C13      2.3440  -38.7570   21.0360 C.3     1  LIG   0.1354   0.0690 
28    H10      3.1238  -38.3754   20.4296 H       1  LIG   0.0981   0.1000 
29    C14      2.9380  -39.8900   21.8010 C.3     1  LIG  -0.1181  -0.2000 
30    H11      3.8890  -40.1268   21.3997 H       1  LIG   0.0732   0.1000 
31    H12      3.0430  -39.6129   22.8177 H       1  LIG   0.0789   0.1000 
32    C15      1.6390  -40.0610   21.0880 C.3     1  LIG  -0.1196  -0.2000 
33    H13      0.6832  -39.9283   21.5242 H       1  LIG   0.0807   0.1000 
34    H14      1.5292  -40.4423   20.1061 H       1  LIG   0.0733   0.1000 
@<TRIPOS>BOND
1     2     1     ar
2     3     2     1
3     4     2     ar
4     5     4     1
5     6     4     ar
6     7     6     ar
7     8     7     1
8     9     8     1
9     10    8     1
10    11    10    1
11    12    11    ar
12    13    12    1
13    14    12    ar
14    15    14    1
15    16    14    ar
16    17    16    1
17    18    16    ar
18    19    11    ar
19    19    18    ar
20    20    19    1
21    21    1     ar
22    21    7     ar
23    21    20    1
24    22    6     1
25    23    22    1
26    24    22    1
27    25    22    1
28    26    10    2
29    27    20    1
30    28    27    1
31    29    27    1
32    30    29    1
33    31    29    1
34    32    27    1
35    32    29    1
36    33    32    1
37    34    32    1
@<TRIPOS>SUBSTRUCTURE
1   LIG    1    
 
########## Name        : 1VRT.lig
########## Description : AM1BCC_CHARGES =  -0.0002 ORIGINAL_CHARGES =  -0.0000

@<TRIPOS>MOLECULE
1VRT.lig
34    37    1     0     0    
SMALL
USER_CHARGES
@<TRIPOS>ATOM
1     N1       4.0540  -36.9310   22.2210 N.ar    1  LIG  -0.6650  -0.6200 
2     C1       4.9660  -36.2380   22.9390 C.ar    1  LIG   0.3947   0.1600 
3     H1       6.0082  -36.2811   22.6707 H       1  LIG   0.0281   0.1500 
4     C2       4.6240  -35.4500   24.0360 C.ar    1  LIG  -0.2334  -0.1500 
5     H2       5.3884  -34.9151   24.5740 H       1  LIG   0.1480   0.1500 
6     C3       3.3050  -35.3690   24.4150 C.ar    1  LIG  -0.0698  -0.1435 
7     C4       2.3460  -36.0770   23.6860 C.ar    1  LIG  -0.0398   0.1170 
8     N2       0.9890  -36.0280   24.1030 N.am    1  LIG  -0.4596  -0.5470 
9     H3       0.7643  -35.9928   25.0860 H       1  LIG   0.3311   0.3700 
10    C5      -0.1450  -36.0180   23.4080 C.2     1  LIG   0.7361   0.5438 
11    C6      -0.1190  -36.0770   21.8860 C.ar    1  LIG  -0.2550   0.0862 
12    C7      -1.1230  -35.3990   21.1890 C.ar    1  LIG  -0.0321  -0.1500 
13    H4      -1.7552  -34.6955   21.7041 H       1  LIG   0.1623   0.1500 
14    C8      -1.2960  -35.6300   19.8690 C.ar    1  LIG  -0.2723  -0.1500 
15    H5      -2.0662  -35.1073   19.3273 H       1  LIG   0.1522   0.1500 
16    C9      -0.4670  -36.5450   19.2400 C.ar    1  LIG   0.4373   0.1600 
17    H6      -0.5947  -36.7554   18.1915 H       1  LIG   0.0280   0.1500 
18    N3       0.5220  -37.2120   19.8740 N.ar    1  LIG  -0.6893  -0.6200 
19    C10      0.7040  -36.9790   21.1800 C.ar    1  LIG   0.6480   0.4100 
20    N4       1.7670  -37.6730   21.8260 N.pl3   1  LIG  -0.6924  -0.3690 
21    C11      2.7540  -36.8570   22.5840 C.ar    1  LIG   0.5805   0.4100 
22    C12      2.9040  -34.5090   25.6010 C.3     1  LIG  -0.0620   0.1435 
23    H7       2.2235  -33.7630   25.2820 H       1  LIG   0.0570   0.0000 
24    H8       2.4436  -35.1154   26.3371 H       1  LIG   0.0495   0.0000 
25    H9       3.7654  -34.0491   26.0108 H       1  LIG   0.0519   0.0000 
26    O1      -1.2400  -35.9060   23.9770 O.2     1  LIG  -0.6361  -0.5700 
27    C13      2.3440  -38.7570   21.0360 C.3     1  LIG   0.1354   0.0690 
28    H10      3.1238  -38.3754   20.4296 H       1  LIG   0.0981   0.1000 
29    C14      2.9380  -39.8900   21.8010 C.3     1  LIG  -0.1181  -0.2000 
30    H11      3.8890  -40.1268   21.3997 H       1  LIG   0.0732   0.1000 
31    H12      3.0430  -39.6129   22.8177 H       1  LIG   0.0789   0.1000 
32    C15      1.6390  -40.0610   21.0880 C.3     1  LIG  -0.1196  -0.2000 
33    H13      0.6832  -39.9283   21.5242 H       1  LIG   0.0807   0.1000 
34    H14      1.5292  -40.4423   20.1061 H       1  LIG   0.0733   0.1000 
@<TRIPOS>BOND
1     2     1     ar
2     3     2     1
3     4     2     ar
4     5     4     1
5     6     4     ar
6     7     6     ar
7     8     7     1
8     9     8     1
9     10    8     1
10    11    10    1
11    12    11    ar
12    13    12    1
13    14    12    ar
14    15    14    1
15    16    14    ar
16    17    16    1
17    18    16    ar
18    19    11    ar
19    19    18    ar
20    20    19    1
21    21    1     ar
22    21    7     ar
23    21    20    1
24    22    6     1
25    23    22    1
26    24    22    1
27    25    22    1
28    26    10    2
29    27    20    1
30    28    27    1
31    29    27    1
32    30    29    1
33    31    29    1
34    32    27    1
35    32    29    1
36    33    32    1
37    34    32    1
@<TRIPOS>SUBSTRUCTURE
1   LIG    1    
 
########## Name        : 1VRT.lig
########## Description : AM1BCC_CHARGES =  -0.0002 ORIGINAL_CHARGES =  -0.0000

@<TRIPOS>MOLECULE
1VRT.lig
34    37    1     0     0    
SMALL
USER_CHARGES
@<TRIPOS>ATOM
1     N1       4.0540  -36.9310   22.2210 N.ar    1  LIG  -0.6650  -0.6200 
2     C1       4.9660  -36.2380   22.9390 C.ar    1  LIG   0.3947   0.1600 
3     H1       6.0082  -36.2811   22.6707 H       1  LIG   0.0281   0.1500 
4     C2       4.6240  -35.4500   24.0360 C.ar    1  LIG  -0.2334  -0.1500 
5     H2       5.3884  -34.9151   24.5740 H       1  LIG   0.1480   0.1500 
6     C3       3.3050  -35.3690   24.4150 C.ar    1  LIG  -0.0698  -0.1435 
7     C4       2.3460  -36.0770   23.6860 C.ar    1  LIG  -0.0398   0.1170 
8     N2       0.9890  -36.0280   24.1030 N.am    1  LIG  -0.4596  -0.5470 
9     H3       0.7643  -35.9928   25.0860 H       1  LIG   0.3311   0.3700 
10    C5      -0.1450  -36.0180   23.4080 C.2     1  LIG   0.7361   0.5438 
11    C6      -0.1190  -36.0770   21.8860 C.ar    1  LIG  -0.2550   0.0862 
12    C7      -1.1230  -35.3990   21.1890 C.ar    1  LIG  -0.0321  -0.1500 
13    H4      -1.7552  -34.6955   21.7041 H       1  LIG   0.1623   0.1500 
14    C8      -1.2960  -35.6300   19.8690 C.ar    1  LIG  -0.2723  -0.1500 
15    H5      -2.0662  -35.1073   19.3273 H       1  LIG   0.1522   0.1500 
16    C9      -0.4670  -36.5450   19.2400 C.ar    1  LIG   0.4373   0.1600 
17    H6      -0.5947  -36.7554   18.1915 H       1  LIG   0.0280   0.1500 
18    N3       0.5220  -37.2120   19.8740 N.ar    1  LIG  -0.6893  -0.6200 
19    C10      0.7040  -36.9790   21.1800 C.ar    1  LIG   0.6480   0.4100 
20    N4       1.7670  -37.6730   21.8260 N.pl3   1  LIG  -0.6924  -0.3690 
21    C11      2.7540  -36.8570   22.5840 C.ar    1  LIG   0.5805   0.4100 
22    C12      2.9040  -34.5090   25.6010 C.3     1  LIG  -0.0620   0.1435 
23    H7       2.2235  -33.7630   25.2820 H       1  LIG   0.0570   0.0000 
24    H8       2.4436  -35.1154   26.3371 H       1  LIG   0.0495   0.0000 
25    H9       3.7654  -34.0491   26.0108 H       1  LIG   0.0519   0.0000 
26    O1      -1.2400  -35.9060   23.9770 O.2     1  LIG  -0.6361  -0.5700 
27    C13      2.3440  -38.7570   21.0360 C.3     1  LIG   0.1354   0.0690 
28    H10      3.1238  -38.3754   20.4296 H       1  LIG   0.0981   0.1000 
29    C14      2.9380  -39.8900   21.8010 C.3     1  LIG  -0.1181  -0.2000 
30    H11      3.8890  -40.1268   21.3997 H       1  LIG   0.0732   0.1000 
31    H12      3.0430  -39.6129   22.8177 H       1  LIG   0.0789   0.1000 
32    C15      1.6390  -40.0610   21.0880 C.3     1  LIG  -0.1196  -0.2000 
33    H13      0.6832  -39.9283   21.5242 H       1  LIG   0.0807   0.1000 
34    H14      1.5292  -40.4423   20.1061 H       1  LIG   0.0733   0.1000 
@<TRIPOS>BOND
1     2     1     ar
2     3     2     1
3     4     2     ar
4     5     4     1
5     6     4     ar
6     7     6     ar
7     8     7     1
8     9     8     1
9     10    8     1
10    11    10    1
11    12    11    ar
12    13    12    1
13    14    12    ar
14    15    14    1
15    16    14    ar
16    17    16    1
17    18    16    ar
18    19    11    ar
19    19    18    ar
20    20    19    1
21    21    1     ar
22    21    7     ar
23    21    20    1
24    22    6     1
25    23    22    1
26    24    22    1
27    25    22    1
28    26    10    2
29    27    20    1
30    28    27    1
31    29    27    1
32    30    29    1
33    31    29    1
34    32    27    1
35    32    29    1
36    33    32    1
37    34    32    1
@<TRIPOS>SUBSTRUCTURE
1   LIG    1    
 
########## Name        : 1VRT.lig
########## Description : AM1BCC_CHARGES =  -0.0002 ORIGINAL_CHARGES =  -0.0000

@<TRIPOS>MOLECULE
1VRT.lig
34    37    1     0     0    
SMALL
USER_CHARGES
@<TRIPOS>ATOM
1     N1       4.0540  -36.9310   22.2210 N.ar    1  LIG  -0.6650  -0.6200 
2     C1       4.9660  -36.2380   22.9390 C.ar    1  LIG   0.3947   0.1600 
3     H1       6.0082  -36.2811   22.6707 H       1  LIG   0.0281   0.1500 
4     C2       4.6240  -35.4500   24.0360 C.ar    1  LIG  -0.2334  -0.1500 
5     H2       5.3884  -34.9151   24.5740 H       1  LIG   0.1480   0.1500 
6     C3       3.3050  -35.3690   24.4150 C.ar    1  LIG  -0.0698  -0.1435 
7     C4       2.3460  -36.0770   23.6860 C.ar    1  LIG  -0.0398   0.1170 
8     N2       0.9890  -36.0280   24.1030 N.am    1  LIG  -0.4596  -0.5470 
9     H3       0.7643  -35.9928   25.0860 H       1  LIG   0.3311   0.3700 
10    C5      -0.1450  -36.0180   23.4080 C.2     1  LIG   0.7361   0.5438 
11    C6      -0.1190  -36.0770   21.8860 C.ar    1  LIG  -0.2550   0.0862 
12    C7      -1.1230  -35.3990   21.1890 C.ar    1  LIG  -0.0321  -0.1500 
13    H4      -1.7552  -34.6955   21.7041 H       1  LIG   0.1623   0.1500 
14    C8      -1.2960  -35.6300   19.8690 C.ar    1  LIG  -0.2723  -0.1500 
15    H5      -2.0662  -35.1073   19.3273 H       1  LIG   0.1522   0.1500 
16    C9      -0.4670  -36.5450   19.2400 C.ar    1  LIG   0.4373   0.1600 
17    H6      -0.5947  -36.7554   18.1915 H       1  LIG   0.0280   0.1500 
18    N3       0.5220  -37.2120   19.8740 N.ar    1  LIG  -0.6893  -0.6200 
19    C10      0.7040  -36.9790   21.1800 C.ar    1  LIG   0.6480   0.4100 
20    N4       1.7670  -37.6730   21.8260 N.pl3   1  LIG  -0.6924  -0.3690 
21    C11      2.7540  -36.8570   22.5840 C.ar    1  LIG   0.5805   0.4100 
22    C12      2.9040  -34.5090   25.6010 C.3     1  LIG  -0.0620   0.1435 
23    H7       2.2235  -33.7630   25.2820 H       1  LIG   0.0570   0.0000 
24    H8       2.4436  -35.1154   26.3371 H       1  LIG   0.0495   0.0000 
25    H9       3.7654  -34.0491   26.0108 H       1  LIG   0.0519   0.0000 
26    O1      -1.2400  -35.9060   23.9770 O.2     1  LIG  -0.6361  -0.5700 
27    C13      2.3440  -38.7570   21.0360 C.3     1  LIG   0.1354   0.0690 
28    H10      3.1238  -38.3754   20.4296 H       1  LIG   0.0981   0.1000 
29    C14      2.9380  -39.8900   21.8010 C.3     1  LIG  -0.1181  -0.2000 
30    H11      3.8890  -40.1268   21.3997 H       1  LIG   0.0732   0.1000 
31    H12      3.0430  -39.6129   22.8177 H       1  LIG   0.0789   0.1000 
32    C15      1.6390  -40.0610   21.0880 C.3     1  LIG  -0.1196  -0.2000 
33    H13      0.6832  -39.9283   21.5242 H       1  LIG   0.0807   0.1000 
34    H14      1.5292  -40.4423   20.1061 H       1  LIG   0.0733   0.1000 
@<TRIPOS>BOND
1     2     1     ar
2     3     2     1
3     4     2     ar
4     5     4     1
5     6     4     ar
6     7     6     ar
7     8     7     1
8     9     8     1
9     10    8     1
10    11    10    1
11    12    11    ar
12    13    12    1
13    14    12    ar
14    15    14    1
15    16    14    ar
16    17    16    1
17    18    16    ar
18    19    11    ar
19    19    18    ar
20    20    19    1
21    21    1     ar
22    21    7     ar
23    21    20    1
24    22    6     1
25    23    22    1
26    24    22    1
27    25    22    1
28    26    10    2
29    27    20    1
30    28    27    1
31    29    27    1
32    30    29    1
33    31    29    1
34    32    27    1
35    32    29    1
36    33    32    1
37    34    32    1
@<TRIPOS>SUBSTRUCTURE
1   LIG    1    
 
########## Name        : 1VRT.lig
########## Description : AM1BCC_CHARGES =  -0.0002 ORIGINAL_CHARGES =  -0.0000

@<TRIPOS>MOLECULE
1VRT.lig
34    37    1     0     0    
SMALL
USER_CHARGES
@<TRIPOS>ATOM
1     N1       4.0540  -36.9310   22.2210 N.ar    1  LIG  -0.6650  -0.6200 
2     C1       4.9660  -36.2380   22.9390 C.ar    1  LIG   0.3947   0.1600 
3     H1       6.0082  -36.2811   22.6707 H       1  LIG   0.0281   0.1500 
4     C2       4.6240  -35.4500   24.0360 C.ar    1  LIG  -0.2334  -0.1500 
5     H2       5.3884  -34.9151   24.5740 H       1  LIG   0.1480   0.1500 
6     C3       3.3050  -35.3690   24.4150 C.ar    1  LIG  -0.0698  -0.1435 
7     C4       2.3460  -36.0770   23.6860 C.ar    1  LIG  -0.0398   0.1170 
8     N2       0.9890  -36.0280   24.1030 N.am    1  LIG  -0.4596  -0.5470 
9     H3       0.7643  -35.9928   25.0860 H       1  LIG   0.3311   0.3700 
10    C5      -0.1450  -36.0180   23.4080 C.2     1  LIG   0.7361   0.5438 
11    C6      -0.1190  -36.0770   21.8860 C.ar    1  LIG  -0.2550   0.0862 
12    C7      -1.1230  -35.3990   21.1890 C.ar    1  LIG  -0.0321  -0.1500 
13    H4      -1.7552  -34.6955   21.7041 H       1  LIG   0.1623   0.1500 
14    C8      -1.2960  -35.6300   19.8690 C.ar    1  LIG  -0.2723  -0.1500 
15    H5      -2.0662  -35.1073   19.3273 H       1  LIG   0.1522   0.1500 
16    C9      -0.4670  -36.5450   19.2400 C.ar    1  LIG   0.4373   0.1600 
17    H6      -0.5947  -36.7554   18.1915 H       1  LIG   0.0280   0.1500 
18    N3       0.5220  -37.2120   19.8740 N.ar    1  LIG  -0.6893  -0.6200 
19    C10      0.7040  -36.9790   21.1800 C.ar    1  LIG   0.6480   0.4100 
20    N4       1.7670  -37.6730   21.8260 N.pl3   1  LIG  -0.6924  -0.3690 
21    C11      2.7540  -36.8570   22.5840 C.ar    1  LIG   0.5805   0.4100 
22    C12      2.9040  -34.5090   25.6010 C.3     1  LIG  -0.0620   0.1435 
23    H7       2.2235  -33.7630   25.2820 H       1  LIG   0.0570   0.0000 
24    H8       2.4436  -35.1154   26.3371 H       1  LIG   0.0495   0.0000 
25    H9       3.7654  -34.0491   26.0108 H       1  LIG   0.0519   0.0000 
26    O1      -1.2400  -35.9060   23.9770 O.2     1  LIG  -0.6361  -0.5700 
27    C13      2.3440  -38.7570   21.0360 C.3     1  LIG   0.1354   0.0690 
28    H10      3.1238  -38.3754   20.4296 H       1  LIG   0.0981   0.1000 
29    C14      2.9380  -39.8900   21.8010 C.3     1  LIG  -0.1181  -0.2000 
30    H11      3.8890  -40.1268   21.3997 H       1  LIG   0.0732   0.1000 
31    H12      3.0430  -39.6129   22.8177 H       1  LIG   0.0789   0.1000 
32    C15      1.6390  -40.0610   21.0880 C.3     1  LIG  -0.1196  -0.2000 
33    H13      0.6832  -39.9283   21.5242 H       1  LIG   0.0807   0.1000 
34    H14      1.5292  -40.4423   20.1061 H       1  LIG   0.0733   0.1000 
@<TRIPOS>BOND
1     2     1     ar
2     3     2     1
3     4     2     ar
4     5     4     1
5     6     4     ar
6     7     6     ar
7     8     7     1
8     9     8     1
9     10    8     1
10    11    10    1
11    12    11    ar
12    13    12    1
13    14    12    ar
14    15    14    1
15    16    14    ar
16    17    16    1
17    18    16    ar
18    19    11    ar
19    19    18    ar
20    20    19    1
21    21    1     ar
22    21    7     ar
23    21    20    1
24    22    6     1
25    23    22    1
26    24    22    1
27    25    22    1
28    26    10    2
29    27    20    1
30    28    27    1
31    29    27    1
32    30    29    1
33    31    29    1
34    32    27    1
35    32    29    1
36    33    32    1
37    34    32    1
@<TRIPOS>SUBSTRUCTURE
1   LIG    1    
 
########## Name        : 1VRT.lig
########## Description : AM1BCC_CHARGES =  -0.0002 ORIGINAL_CHARGES =  -0.0000

@<TRIPOS>MOLECULE
1VRT.lig
34    37    1     0     0    
SMALL
USER_CHARGES
@<TRIPOS>ATOM
1     N1       4.0540  -36.9310   22.2210 N.ar    1  LIG  -0.6650  -0.6200 
2     C1       4.9660  -36.2380   22.9390 C.ar    1  LIG   0.3947   0.1600 
3     H1       6.0082  -36.2811   22.6707 H       1  LIG   0.0281   0.1500 
4     C2       4.6240  -35.4500   24.0360 C.ar    1  LIG  -0.2334  -0.1500 
5     H2       5.3884  -34.9151   24.5740 H       1  LIG   0.1480   0.1500 
6     C3       3.3050  -35.3690   24.4150 C.ar    1  LIG  -0.0698  -0.1435 
7     C4       2.3460  -36.0770   23.6860 C.ar    1  LIG  -0.0398   0.1170 
8     N2       0.9890  -36.0280   24.1030 N.am    1  LIG  -0.4596  -0.5470 
9     H3       0.7643  -35.9928   25.0860 H       1  LIG   0.3311   0.3700 
10    C5      -0.1450  -36.0180   23.4080 C.2     1  LIG   0.7361   0.5438 
11    C6      -0.1190  -36.0770   21.8860 C.ar    1  LIG  -0.2550   0.0862 
12    C7      -1.1230  -35.3990   21.1890 C.ar    1  LIG  -0.0321  -0.1500 
13    H4      -1.7552  -34.6955   21.7041 H       1  LIG   0.1623   0.1500 
14    C8      -1.2960  -35.6300   19.8690 C.ar    1  LIG  -0.2723  -0.1500 
15    H5      -2.0662  -35.1073   19.3273 H       1  LIG   0.1522   0.1500 
16    C9      -0.4670  -36.5450   19.2400 C.ar    1  LIG   0.4373   0.1600 
17    H6      -0.5947  -36.7554   18.1915 H       1  LIG   0.0280   0.1500 
18    N3       0.5220  -37.2120   19.8740 N.ar    1  LIG  -0.6893  -0.6200 
19    C10      0.7040  -36.9790   21.1800 C.ar    1  LIG   0.6480   0.4100 
20    N4       1.7670  -37.6730   21.8260 N.pl3   1  LIG  -0.6924  -0.3690 
21    C11      2.7540  -36.8570   22.5840 C.ar    1  LIG   0.5805   0.4100 
22    C12      2.9040  -34.5090   25.6010 C.3     1  LIG  -0.0620   0.1435 
23    H7       2.2235  -33.7630   25.2820 H       1  LIG   0.0570   0.0000 
24    H8       2.4436  -35.1154   26.3371 H       1  LIG   0.0495   0.0000 
25    H9       3.7654  -34.0491   26.0108 H       1  LIG   0.0519   0.0000 
26    O1      -1.2400  -35.9060   23.9770 O.2     1  LIG  -0.6361  -0.5700 
27    C13      2.3440  -38.7570   21.0360 C.3     1  LIG   0.1354   0.0690 
28    H10      3.1238  -38.3754   20.4296 H       1  LIG   0.0981   0.1000 
29    C14      2.9380  -39.8900   21.8010 C.3     1  LIG  -0.1181  -0.2000 
30    H11      3.8890  -40.1268   21.3997 H       1  LIG   0.0732   0.1000 
31    H12      3.0430  -39.6129   22.8177 H       1  LIG   0.0789   0.1000 
32    C15      1.6390  -40.0610   21.0880 C.3     1  LIG  -0.1196  -0.2000 
33    H13      0.6832  -39.9283   21.5242 H       1  LIG   0.0807   0.1000 
34    H14      1.5292  -40.4423   20.1061 H       1  LIG   0.0733   0.1000 
@<TRIPOS>BOND
1     2     1     ar
2     3     2     1
3     4     2     ar
4     5     4     1
5     6     4     ar
6     7     6     ar
7     8     7     1
8     9     8     1
9     10    8     1
10    11    10    1
11    12    11    ar
12    13    12    1
13    14    12    ar
14    15    14    1
15    16    14    ar
16    17    16    1
17    18    16    ar
18    19    11    ar
19    19    18    ar
20    20    19    1
21    21    1     ar
22    21    7     ar
23    21    20    1
24    22    6     1
25    23    22    1
26    24    22    1
27    25    22    1
28    26    10    2
29    27    20    1
30    28    27    1
31    29    27    1
32    30    29    1
33    31    29    1
34    32    27    1
35    32    29    1
36    33    32    1
37    34    32    1
@<TRIPOS>SUBSTRUCTURE
1   LIG    1    
 
########## Name        : 1VRT.lig
########## Description : AM1BCC_CHARGES =  -0.0002 ORIGINAL_CHARGES =  -0.0000

@<TRIPOS>MOLECULE
1VRT.lig
34    37    1     0     0    
SMALL
USER_CHARGES
@<TRIPOS>ATOM
1     N1       4.0540  -36.9310   22.2210 N.ar    1  LIG  -0.6650  -0.6200 
2     C1       4.9660  -36.2380   22.9390 C.ar    1  LIG   0.3947   0.1600 
3     H1       6.0082  -36.2811   22.6707 H       1  LIG   0.0281   0.1500 
4     C2       4.6240  -35.4500   24.0360 C.ar    1  LIG  -0.2334  -0.1500 
5     H2       5.3884  -34.9151   24.5740 H       1  LIG   0.1480   0.1500 
6     C3       3.3050  -35.3690   24.4150 C.ar    1  LIG  -0.0698  -0.1435 
7     C4       2.3460  -36.0770   23.6860 C.ar    1  LIG  -0.0398   0.1170 
8     N2       0.9890  -36.0280   24.1030 N.am    1  LIG  -0.4596  -0.5470 
9     H3       0.7643  -35.9928   25.0860 H       1  LIG   0.3311   0.3700 
10    C5      -0.1450  -36.0180   23.4080 C.2     1  LIG   0.7361   0.5438 
11    C6      -0.1190  -36.0770   21.8860 C.ar    1  LIG  -0.2550   0.0862 
12    C7      -1.1230  -35.3990   21.1890 C.ar    1  LIG  -0.0321  -0.1500 
13    H4      -1.7552  -34.6955   21.7041 H       1  LIG   0.1623   0.1500 
14    C8      -1.2960  -35.6300   19.8690 C.ar    1  LIG  -0.2723  -0.1500 
15    H5      -2.0662  -35.1073   19.3273 H       1  LIG   0.1522   0.1500 
16    C9      -0.4670  -36.5450   19.2400 C.ar    1  LIG   0.4373   0.1600 
17    H6      -0.5947  -36.7554   18.1915 H       1  LIG   0.0280   0.1500 
18    N3       0.5220  -37.2120   19.8740 N.ar    1  LIG  -0.6893  -0.6200 
19    C10      0.7040  -36.9790   21.1800 C.ar    1  LIG   0.6480   0.4100 
20    N4       1.7670  -37.6730   21.8260 N.pl3   1  LIG  -0.6924  -0.3690 
21    C11      2.7540  -36.8570   22.5840 C.ar    1  LIG   0.5805   0.4100 
22    C12      2.9040  -34.5090   25.6010 C.3     1  LIG  -0.0620   0.1435 
23    H7       2.2235  -33.7630   25.2820 H       1  LIG   0.0570   0.0000 
24    H8       2.4436  -35.1154   26.3371 H       1  LIG   0.0495   0.0000 
25    H9       3.7654  -34.0491   26.0108 H       1  LIG   0.0519   0.0000 
26    O1      -1.2400  -35.9060   23.9770 O.2     1  LIG  -0.6361  -0.5700 
27    C13      2.3440  -38.7570   21.0360 C.3     1  LIG   0.1354   0.0690 
28    H10      3.1238  -38.3754   20.4296 H       1  LIG   0.0981   0.1000 
29    C14      2.9380  -39.8900   21.8010 C.3     1  LIG  -0.1181  -0.2000 
30    H11      3.8890  -40.1268   21.3997 H       1  LIG   0.0732   0.1000 
31    H12      3.0430  -39.6129   22.8177 H       1  LIG   0.0789   0.1000 
32    C15      1.6390  -40.0610   21.0880 C.3     1  LIG  -0.1196  -0.2000 
33    H13      0.6832  -39.9283   21.5242 H       1  LIG   0.0807   0.1000 
34    H14      1.5292  -40.4423   20.1061 H       1  LIG   0.0733   0.1000 
@<TRIPOS>BOND
1     2     1     ar
2     3     2     1
3     4     2     ar
4     5     4     1
5     6     4     ar
6     7     6     ar
7     8     7     1
8     9     8     1
9     10    8     1
10    11    10    1
11    12    11    ar
12    13    12    1
13    14    12    ar
14    15    14    1
15    16    14    ar
16    17    16    1
17    18    16    ar
18    19    11    ar
19    19    18    ar
20    20    19    1
21    21    1     ar
22    21    7     ar
23    21    20    1
24    22    6     1
25    23    22    1
26    24    22    1
27    25    22    1
28    26    10    2
29    27    20    1
30    28    27    1
31    29    27    1
32    30    29    1
33    31    29    1
34    32    27    1
35    32    29    1
36    33    32    1
37    34    32    1
@<TRIPOS>SUBSTRUCTURE
1   LIG    1    
 
########## Name        : 1VRT.lig
########## Description : AM1BCC_CHARGES =  -0.0002 ORIGINAL_CHARGES =  -0.0000

@<TRIPOS>MOLECULE
1VRT.lig
34    37    1     0     0    
SMALL
USER_CHARGES
@<TRIPOS>ATOM
1     N1       4.0540  -36.9310   22.2210 N.ar    1  LIG  -0.6650  -0.6200 
2     C1       4.9660  -36.2380   22.9390 C.ar    1  LIG   0.3947   0.1600 
3     H1       6.0082  -36.2811   22.6707 H       1  LIG   0.0281   0.1500 
4     C2       4.6240  -35.4500   24.0360 C.ar    1  LIG  -0.2334  -0.1500 
5     H2       5.3884  -34.9151   24.5740 H       1  LIG   0.1480   0.1500 
6     C3       3.3050  -35.3690   24.4150 C.ar    1  LIG  -0.0698  -0.1435 
7     C4       2.3460  -36.0770   23.6860 C.ar    1  LIG  -0.0398   0.1170 
8     N2       0.9890  -36.0280   24.1030 N.am    1  LIG  -0.4596  -0.5470 
9     H3       0.7643  -35.9928   25.0860 H       1  LIG   0.3311   0.3700 
10    C5      -0.1450  -36.0180   23.4080 C.2     1  LIG   0.7361   0.5438 
11    C6      -0.1190  -36.0770   21.8860 C.ar    1  LIG  -0.2550   0.0862 
12    C7      -1.1230  -35.3990   21.1890 C.ar    1  LIG  -0.0321  -0.1500 
13    H4      -1.7552  -34.6955   21.7041 H       1  LIG   0.1623   0.1500 
14    C8      -1.2960  -35.6300   19.8690 C.ar    1  LIG  -0.2723  -0.1500 
15    H5      -2.0662  -35.1073   19.3273 H       1  LIG   0.1522   0.1500 
16    C9      -0.4670  -36.5450   19.2400 C.ar    1  LIG   0.4373   0.1600 
17    H6      -0.5947  -36.7554   18.1915 H       1  LIG   0.0280   0.1500 
18    N3       0.5220  -37.2120   19.8740 N.ar    1  LIG  -0.6893  -0.6200 
19    C10      0.7040  -36.9790   21.1800 C.ar    1  LIG   0.6480   0.4100 
20    N4       1.7670  -37.6730   21.8260 N.pl3   1  LIG  -0.6924  -0.3690 
21    C11      2.7540  -36.8570   22.5840 C.ar    1  LIG   0.5805   0.4100 
22    C12      2.9040  -34.5090   25.6010 C.3     1  LIG  -0.0620   0.1435 
23    H7       2.2235  -33.7630   25.2820 H       1  LIG   0.0570   0.0000 
24    H8       2.4436  -35.1154   26.3371 H       1  LIG   0.0495   0.0000 
25    H9       3.7654  -34.0491   26.0108 H       1  LIG   0.0519   0.0000 
26    O1      -1.2400  -35.9060   23.9770 O.2     1  LIG  -0.6361  -0.5700 
27    C13      2.3440  -38.7570   21.0360 C.3     1  LIG   0.1354   0.0690 
28    H10      3.1238  -38.3754   20.4296 H       1  LIG   0.0981   0.1000 
29    C14      2.9380  -39.8900   21.8010 C.3     1  LIG  -0.1181  -0.2000 
30    H11      3.8890  -40.1268   21.3997 H       1  LIG   0.0732   0.1000 
31    H12      3.0430  -39.6129   22.8177 H       1  LIG   0.0789   0.1000 
32    C15      1.6390  -40.0610   21.0880 C.3     1  LIG  -0.1196  -0.2000 
33    H13      0.6832  -39.9283   21.5242 H       1  LIG   0.0807   0.1000 
34    H14      1.5292  -40.4423   20.1061 H       1  LIG   0.0733   0.1000 
@<TRIPOS>BOND
1     2     1     ar
2     3     2     1
3     4     2     ar
4     5     4     1
5     6     4     ar
6     7     6     ar
7     8     7     1
8     9     8     1
9     10    8     1
10    11    10    1
11    12    11    ar
12    13    12    1
13    14    12    ar
14    15    14    1
15    16    14    ar
16    17    16    1
17    18    16    ar
18    19    11    ar
19    19    18    ar
20    20    19    1
21    21    1     ar
22    21    7     ar
23    21    20    1
24    22    6     1
25    23    22    1
26    24    22    1
27    25    22    1
28    26    10    2
29    27    20    1
30    28    27    1
31    29    27    1
32    30    29    1
33    31    29    1
34    32    27    1
35    32    29    1
36    33    32    1
37    34    32    1
@<TRIPOS>SUBSTRUCTURE
1   LIG    1    
 
########## Name        : 1VRT.lig
########## Description : AM1BCC_CHARGES =  -0.0002 ORIGINAL_CHARGES =  -0.0000

@<TRIPOS>MOLECULE
1VRT.lig
34    37    1     0     0    
SMALL
USER_CHARGES
@<TRIPOS>ATOM
1     N1       4.0540  -36.9310   22.2210 N.ar    1  LIG  -0.6650  -0.6200 
2     C1       4.9660  -36.2380   22.9390 C.ar    1  LIG   0.3947   0.1600 
3     H1       6.0082  -36.2811   22.6707 H       1  LIG   0.0281   0.1500 
4     C2       4.6240  -35.4500   24.0360 C.ar    1  LIG  -0.2334  -0.1500 
5     H2       5.3884  -34.9151   24.5740 H       1  LIG   0.1480   0.1500 
6     C3       3.3050  -35.3690   24.4150 C.ar    1  LIG  -0.0698  -0.1435 
7     C4       2.3460  -36.0770   23.6860 C.ar    1  LIG  -0.0398   0.1170 
8     N2       0.9890  -36.0280   24.1030 N.am    1  LIG  -0.4596  -0.5470 
9     H3       0.7643  -35.9928   25.0860 H       1  LIG   0.3311   0.3700 
10    C5      -0.1450  -36.0180   23.4080 C.2     1  LIG   0.7361   0.5438 
11    C6      -0.1190  -36.0770   21.8860 C.ar    1  LIG  -0.2550   0.0862 
12    C7      -1.1230  -35.3990   21.1890 C.ar    1  LIG  -0.0321  -0.1500 
13    H4      -1.7552  -34.6955   21.7041 H       1  LIG   0.1623   0.1500 
14    C8      -1.2960  -35.6300   19.8690 C.ar    1  LIG  -0.2723  -0.1500 
15    H5      -2.0662  -35.1073   19.3273 H       1  LIG   0.1522   0.1500 
16    C9      -0.4670  -36.5450   19.2400 C.ar    1  LIG   0.4373   0.1600 
17    H6      -0.5947  -36.7554   18.1915 H       1  LIG   0.0280   0.1500 
18    N3       0.5220  -37.2120   19.8740 N.ar    1  LIG  -0.6893  -0.6200 
19    C10      0.7040  -36.9790   21.1800 C.ar    1  LIG   0.6480   0.4100 
20    N4       1.7670  -37.6730   21.8260 N.pl3   1  LIG  -0.6924  -0.3690 
21    C11      2.7540  -36.8570   22.5840 C.ar    1  LIG   0.5805   0.4100 
22    C12      2.9040  -34.5090   25.6010 C.3     1  LIG  -0.0620   0.1435 
23    H7       2.2235  -33.7630   25.2820 H       1  LIG   0.0570   0.0000 
24    H8       2.4436  -35.1154   26.3371 H       1  LIG   0.0495   0.0000 
25    H9       3.7654  -34.0491   26.0108 H       1  LIG   0.0519   0.0000 
26    O1      -1.2400  -35.9060   23.9770 O.2     1  LIG  -0.6361  -0.5700 
27    C13      2.3440  -38.7570   21.0360 C.3     1  LIG   0.1354   0.0690 
28    H10      3.1238  -38.3754   20.4296 H       1  LIG   0.0981   0.1000 
29    C14      2.9380  -39.8900   21.8010 C.3     1  LIG  -0.1181  -0.2000 
30    H11      3.8890  -40.1268   21.3997 H       1  LIG   0.0732   0.1000 
31    H12      3.0430  -39.6129   22.8177 H       1  LIG   0.0789   0.1000 
32    C15      1.6390  -40.0610   21.0880 C.3     1  LIG  -0.1196  -0.2000 
33    H13      0.6832  -39.9283   21.5242 H       1  LIG   0.0807   0.1000 
34    H14      1.5292  -40.4423   20.1061 H       1  LIG   0.0733   0.1000 
@<TRIPOS>BOND
1     2     1     ar
2     3     2     1
3     4     2     ar
4     5     4     1
5     6     4     ar
6     7     6     ar
7     8     7     1
8     9     8     1
9     10    8     1
10    11    10    1
11    12    11    ar
12    13    12    1
13    14    12    ar
14    15    14    1
15    16    14    ar
16    17    16    1
17    18    16    ar
18    19    11    ar
19    19    18    ar
20    20    19    1
21    21    1     ar
22    21    7     ar
23    21    20    1
24    22    6     1
25    23    22    1
26    24    22    1
27    25    22    1
28    26    10    2
29    27    20    1
30    28    27    1
31    29    27    1
32    30    29    1
33    31    29    1
34    32    27    1
35    32    29    1
36    33    32    1
37    34    32    1
@<TRIPOS>SUBSTRUCTURE
1   LIG    1    
 
########## Name        : 1VRT.lig
########## Description : AM1BCC_CHARGES =  -0.0002 ORIGINAL_CHARGES =  -0.0000

@<TRIPOS>MOLECULE
1VRT.lig
34    37    1     0     0    
SMALL
USER_CHARGES
@<TRIPOS>ATOM
1     N1       4.0540  -36.9310   22.2210 N.ar    1  LIG  -0.6650  -0.6200 
2     C1       4.9660  -36.2380   22.9390 C.ar    1  LIG   0.3947   0.1600 
3     H1       6.0082  -36.2811   22.6707 H       1  LIG   0.0281   0.1500 
4     C2       4.6240  -35.4500   24.0360 C.ar    1  LIG  -0.2334  -0.1500 
5     H2       5.3884  -34.9151   24.5740 H       1  LIG   0.1480   0.1500 
6     C3       3.3050  -35.3690   24.4150 C.ar    1  LIG  -0.0698  -0.1435 
7     C4       2.3460  -36.0770   23.6860 C.ar    1  LIG  -0.0398   0.1170 
8     N2       0.9890  -36.0280   24.1030 N.am    1  LIG  -0.4596  -0.5470 
9     H3       0.7643  -35.9928   25.0860 H       1  LIG   0.3311   0.3700 
10    C5      -0.1450  -36.0180   23.4080 C.2     1  LIG   0.7361   0.5438 
11    C6      -0.1190  -36.0770   21.8860 C.ar    1  LIG  -0.2550   0.0862 
12    C7      -1.1230  -35.3990   21.1890 C.ar    1  LIG  -0.0321  -0.1500 
13    H4      -1.7552  -34.6955   21.7041 H       1  LIG   0.1623   0.1500 
14    C8      -1.2960  -35.6300   19.8690 C.ar    1  LIG  -0.2723  -0.1500 
15    H5      -2.0662  -35.1073   19.3273 H       1  LIG   0.1522   0.1500 
16    C9      -0.4670  -36.5450   19.2400 C.ar    1  LIG   0.4373   0.1600 
17    H6      -0.5947  -36.7554   18.1915 H       1  LIG   0.0280   0.1500 
18    N3       0.5220  -37.2120   19.8740 N.ar    1  LIG  -0.6893  -0.6200 
19    C10      0.7040  -36.9790   21.1800 C.ar    1  LIG   0.6480   0.4100 
20    N4       1.7670  -37.6730   21.8260 N.pl3   1  LIG  -0.6924  -0.3690 
21    C11      2.7540  -36.8570   22.5840 C.ar    1  LIG   0.5805   0.4100 
22    C12      2.9040  -34.5090   25.6010 C.3     1  LIG  -0.0620   0.1435 
23    H7       2.2235  -33.7630   25.2820 H       1  LIG   0.0570   0.0000 
24    H8       2.4436  -35.1154   26.3371 H       1  LIG   0.0495   0.0000 
25    H9       3.7654  -34.0491   26.0108 H       1  LIG   0.0519   0.0000 
26    O1      -1.2400  -35.9060   23.9770 O.2     1  LIG  -0.6361  -0.5700 
27    C13      2.3440  -38.7570   21.0360 C.3     1  LIG   0.1354   0.0690 
28    H10      3.1238  -38.3754   20.4296 H       1  LIG   0.0981   0.1000 
29    C14      2.9380  -39.8900   21.8010 C.3     1  LIG  -0.1181  -0.2000 
30    H11      3.8890  -40.1268   21.3997 H       1  LIG   0.0732   0.1000 
31    H12      3.0430  -39.6129   22.8177 H       1  LIG   0.0789   0.1000 
32    C15      1.6390  -40.0610   21.0880 C.3     1  LIG  -0.1196  -0.2000 
33    H13      0.6832  -39.9283   21.5242 H       1  LIG   0.0807   0.1000 
34    H14      1.5292  -40.4423   20.1061 H       1  LIG   0.0733   0.1000 
@<TRIPOS>BOND
1     2     1     ar
2     3     2     1
3     4     2     ar
4     5     4     1
5     6     4     ar
6     7     6     ar
7     8     7     1
8     9     8     1
9     10    8     1
10    11    10    1
11    12    11    ar
12    13    12    1
13    14    12    ar
14    15    14    1
15    16    14    ar
16    17    16    1
17    18    16    ar
18    19    11    ar
19    19    18    ar
20    20    19    1
21    21    1     ar
22    21    7     ar
23    21    20    1
24    22    6     1
25    23    22    1
26    24    22    1
27    25    22    1
28    26    10    2
29    27    20    1
30    28    27    1
31    29    27    1
32    30    29    1
33    31    29    1
34    32    27    1
35    32    29    1
36    33    32    1
37    34    32    1
@<TRIPOS>SUBSTRUCTURE
1   LIG    1    
 
########## Name        : 1VRT.lig
########## Description : AM1BCC_CHARGES =  -0.0002 ORIGINAL_CHARGES =  -0.0000

@<TRIPOS>MOLECULE
1VRT.lig
34    37    1     0     0    
SMALL
USER_CHARGES
@<TRIPOS>ATOM
1     N1       4.0540  -36.9310   22.2210 N.ar    1  LIG  -0.6650  -0.6200 
2     C1       4.9660  -36.2380   22.9390 C.ar    1  LIG   0.3947   0.1600 
3     H1       6.0082  -36.2811   22.6707 H       1  LIG   0.0281   0.1500 
4     C2       4.6240  -35.4500   24.0360 C.ar    1  LIG  -0.2334  -0.1500 
5     H2       5.3884  -34.9151   24.5740 H       1  LIG   0.1480   0.1500 
6     C3       3.3050  -35.3690   24.4150 C.ar    1  LIG  -0.0698  -0.1435 
7     C4       2.3460  -36.0770   23.6860 C.ar    1  LIG  -0.0398   0.1170 
8     N2       0.9890  -36.0280   24.1030 N.am    1  LIG  -0.4596  -0.5470 
9     H3       0.7643  -35.9928   25.0860 H       1  LIG   0.3311   0.3700 
10    C5      -0.1450  -36.0180   23.4080 C.2     1  LIG   0.7361   0.5438 
11    C6      -0.1190  -36.0770   21.8860 C.ar    1  LIG  -0.2550   0.0862 
12    C7      -1.1230  -35.3990   21.1890 C.ar    1  LIG  -0.0321  -0.1500 
13    H4      -1.7552  -34.6955   21.7041 H       1  LIG   0.1623   0.1500 
14    C8      -1.2960  -35.6300   19.8690 C.ar    1  LIG  -0.2723  -0.1500 
15    H5      -2.0662  -35.1073   19.3273 H       1  LIG   0.1522   0.1500 
16    C9      -0.4670  -36.5450   19.2400 C.ar    1  LIG   0.4373   0.1600 
17    H6      -0.5947  -36.7554   18.1915 H       1  LIG   0.0280   0.1500 
18    N3       0.5220  -37.2120   19.8740 N.ar    1  LIG  -0.6893  -0.6200 
19    C10      0.7040  -36.9790   21.1800 C.ar    1  LIG   0.6480   0.4100 
20    N4       1.7670  -37.6730   21.8260 N.pl3   1  LIG  -0.6924  -0.3690 
21    C11      2.7540  -36.8570   22.5840 C.ar    1  LIG   0.5805   0.4100 
22    C12      2.9040  -34.5090   25.6010 C.3     1  LIG  -0.0620   0.1435 
23    H7       2.2235  -33.7630   25.2820 H       1  LIG   0.0570   0.0000 
24    H8       2.4436  -35.1154   26.3371 H       1  LIG   0.0495   0.0000 
25    H9       3.7654  -34.0491   26.0108 H       1  LIG   0.0519   0.0000 
26    O1      -1.2400  -35.9060   23.9770 O.2     1  LIG  -0.6361  -0.5700 
27    C13      2.3440  -38.7570   21.0360 C.3     1  LIG   0.1354   0.0690 
28    H10      3.1238  -38.3754   20.4296 H       1  LIG   0.0981   0.1000 
29    C14      2.9380  -39.8900   21.8010 C.3     1  LIG  -0.1181  -0.2000 
30    H11      3.8890  -40.1268   21.3997 H       1  LIG   0.0732   0.1000 
31    H12      3.0430  -39.6129   22.8177 H       1  LIG   0.0789   0.1000 
32    C15      1.6390  -40.0610   21.0880 C.3     1  LIG  -0.1196  -0.2000 
33    H13      0.6832  -39.9283   21.5242 H       1  LIG   0.0807   0.1000 
34    H14      1.5292  -40.4423   20.1061 H       1  LIG   0.0733   0.1000 
@<TRIPOS>BOND
1     2     1     ar
2     3     2     1
3     4     2     ar
4     5     4     1
5     6     4     ar
6     7     6     ar
7     8     7     1
8     9     8     1
9     10    8     1
10    11    10    1
11    12    11    ar
12    13    12    1
13    14    12    ar
14    15    14    1
15    16    14    ar
16    17    16    1
17    18    16    ar
18    19    11    ar
19    19    18    ar
20    20    19    1
21    21    1     ar
22    21    7     ar
23    21    20    1
24    22    6     1
25    23    22    1
26    24    22    1
27    25    22    1
28    26    10    2
29    27    20    1
30    28    27    1
31    29    27    1
32    30    29    1
33    31    29    1
34    32    27    1
35    32    29    1
36    33    32    1
37    34    32    1
@<TRIPOS>SUBSTRUCTURE
1   LIG    1    
 
########## Name        : 1VRT.lig
########## Description : AM1BCC_CHARGES =  -0.0002 ORIGINAL_CHARGES =  -0.0000

@<TRIPOS>MOLECULE
1VRT.lig
34    37    1     0     0    
SMALL
USER_CHARGES
@<TRIPOS>ATOM
1     N1       4.0540  -36.9310   22.2210 N.ar    1  LIG  -0.6650  -0.6200 
2     C1       4.9660  -36.2380   22.9390 C.ar    1  LIG   0.3947   0.1600 
3     H1       6.0082  -36.2811   22.6707 H       1  LIG   0.0281   0.1500 
4     C2       4.6240  -35.4500   24.0360 C.ar    1  LIG  -0.2334  -0.1500 
5     H2       5.3884  -34.9151   24.5740 H       1  LIG   0.1480   0.1500 
6     C3       3.3050  -35.3690   24.4150 C.ar    1  LIG  -0.0698  -0.1435 
7     C4       2.3460  -36.0770   23.6860 C.ar    1  LIG  -0.0398   0.1170 
8     N2       0.9890  -36.0280   24.1030 N.am    1  LIG  -0.4596  -0.5470 
9     H3       0.7643  -35.9928   25.0860 H       1  LIG   0.3311   0.3700 
10    C5      -0.1450  -36.0180   23.4080 C.2     1  LIG   0.7361   0.5438 
11    C6      -0.1190  -36.0770   21.8860 C.ar    1  LIG  -0.2550   0.0862 
12    C7      -1.1230  -35.3990   21.1890 C.ar    1  LIG  -0.0321  -0.1500 
13    H4      -1.7552  -34.6955   21.7041 H       1  LIG   0.1623   0.1500 
14    C8      -1.2960  -35.6300   19.8690 C.ar    1  LIG  -0.2723  -0.1500 
15    H5      -2.0662  -35.1073   19.3273 H       1  LIG   0.1522   0.1500 
16    C9      -0.4670  -36.5450   19.2400 C.ar    1  LIG   0.4373   0.1600 
17    H6      -0.5947  -36.7554   18.1915 H       1  LIG   0.0280   0.1500 
18    N3       0.5220  -37.2120   19.8740 N.ar    1  LIG  -0.6893  -0.6200 
19    C10      0.7040  -36.9790   21.1800 C.ar    1  LIG   0.6480   0.4100 
20    N4       1.7670  -37.6730   21.8260 N.pl3   1  LIG  -0.6924  -0.3690 
21    C11      2.7540  -36.8570   22.5840 C.ar    1  LIG   0.5805   0.4100 
22    C12      2.9040  -34.5090   25.6010 C.3     1  LIG  -0.0620   0.1435 
23    H7       2.2235  -33.7630   25.2820 H       1  LIG   0.0570   0.0000 
24    H8       2.4436  -35.1154   26.3371 H       1  LIG   0.0495   0.0000 
25    H9       3.7654  -34.0491   26.0108 H       1  LIG   0.0519   0.0000 
26    O1      -1.2400  -35.9060   23.9770 O.2     1  LIG  -0.6361  -0.5700 
27    C13      2.3440  -38.7570   21.0360 C.3     1  LIG   0.1354   0.0690 
28    H10      3.1238  -38.3754   20.4296 H       1  LIG   0.0981   0.1000 
29    C14      2.9380  -39.8900   21.8010 C.3     1  LIG  -0.1181  -0.2000 
30    H11      3.8890  -40.1268   21.3997 H       1  LIG   0.0732   0.1000 
31    H12      3.0430  -39.6129   22.8177 H       1  LIG   0.0789   0.1000 
32    C15      1.6390  -40.0610   21.0880 C.3     1  LIG  -0.1196  -0.2000 
33    H13      0.6832  -39.9283   21.5242 H       1  LIG   0.0807   0.1000 
34    H14      1.5292  -40.4423   20.1061 H       1  LIG   0.0733   0.1000 
@<TRIPOS>BOND
1     2     1     ar
2     3     2     1
3     4     2     ar
4     5     4     1
5     6     4     ar
6     7     6     ar
7     8     7     1
8     9     8     1
9     10    8     1
10    11    10    1
11    12    11    ar
12    13    12    1
13    14    12    ar
14    15    14    1
15    16    14    ar
16    17    16    1
17    18    16    ar
18    19    11    ar
19    19    18    ar
20    20    19    1
21    21    1     ar
22    21    7     ar
23    21    20    1
24    22    6     1
25    23    22    1
26    24    22    1
27    25    22    1
28    26    10    2
29    27    20    1
30    28    27    1
31    29    27    1
32    30    29    1
33    31    29    1
34    32    27    1
35    32    29    1
36    33    32    1
37    34    32    1
@<TRIPOS>SUBSTRUCTURE
1   LIG    1    
 
########## Name        : 1VRT.lig
########## Description : AM1BCC_CHARGES =  -0.0002 ORIGINAL_CHARGES =  -0.0000

@<TRIPOS>MOLECULE
1VRT.lig
34    37    1     0     0    
SMALL
USER_CHARGES
@<TRIPOS>ATOM
1     N1       4.0540  -36.9310   22.2210 N.ar    1  LIG  -0.6650  -0.6200 
2     C1       4.9660  -36.2380   22.9390 C.ar    1  LIG   0.3947   0.1600 
3     H1       6.0082  -36.2811   22.6707 H       1  LIG   0.0281   0.1500 
4     C2       4.6240  -35.4500   24.0360 C.ar    1  LIG  -0.2334  -0.1500 
5     H2       5.3884  -34.9151   24.5740 H       1  LIG   0.1480   0.1500 
6     C3       3.3050  -35.3690   24.4150 C.ar    1  LIG  -0.0698  -0.1435 
7     C4       2.3460  -36.0770   23.6860 C.ar    1  LIG  -0.0398   0.1170 
8     N2       0.9890  -36.0280   24.1030 N.am    1  LIG  -0.4596  -0.5470 
9     H3       0.7643  -35.9928   25.0860 H       1  LIG   0.3311   0.3700 
10    C5      -0.1450  -36.0180   23.4080 C.2     1  LIG   0.7361   0.5438 
11    C6      -0.1190  -36.0770   21.8860 C.ar    1  LIG  -0.2550   0.0862 
12    C7      -1.1230  -35.3990   21.1890 C.ar    1  LIG  -0.0321  -0.1500 
13    H4      -1.7552  -34.6955   21.7041 H       1  LIG   0.1623   0.1500 
14    C8      -1.2960  -35.6300   19.8690 C.ar    1  LIG  -0.2723  -0.1500 
15    H5      -2.0662  -35.1073   19.3273 H       1  LIG   0.1522   0.1500 
16    C9      -0.4670  -36.5450   19.2400 C.ar    1  LIG   0.4373   0.1600 
17    H6      -0.5947  -36.7554   18.1915 H       1  LIG   0.0280   0.1500 
18    N3       0.5220  -37.2120   19.8740 N.ar    1  LIG  -0.6893  -0.6200 
19    C10      0.7040  -36.9790   21.1800 C.ar    1  LIG   0.6480   0.4100 
20    N4       1.7670  -37.6730   21.8260 N.pl3   1  LIG  -0.6924  -0.3690 
21    C11      2.7540  -36.8570   22.5840 C.ar    1  LIG   0.5805   0.4100 
22    C12      2.9040  -34.5090   25.6010 C.3     1  LIG  -0.0620   0.1435 
23    H7       2.2235  -33.7630   25.2820 H       1  LIG   0.0570   0.0000 
24    H8       2.4436  -35.1154   26.3371 H       1  LIG   0.0495   0.0000 
25    H9       3.7654  -34.0491   26.0108 H       1  LIG   0.0519   0.0000 
26    O1      -1.2400  -35.9060   23.9770 O.2     1  LIG  -0.6361  -0.5700 
27    C13      2.3440  -38.7570   21.0360 C.3     1  LIG   0.1354   0.0690 
28    H10      3.1238  -38.3754   20.4296 H       1  LIG   0.0981   0.1000 
29    C14      2.9380  -39.8900   21.8010 C.3     1  LIG  -0.1181  -0.2000 
30    H11      3.8890  -40.1268   21.3997 H       1  LIG   0.0732   0.1000 
31    H12      3.0430  -39.6129   22.8177 H       1  LIG   0.0789   0.1000 
32    C15      1.6390  -40.0610   21.0880 C.3     1  LIG  -0.1196  -0.2000 
33    H13      0.6832  -39.9283   21.5242 H       1  LIG   0.0807   0.1000 
34    H14      1.5292  -40.4423   20.1061 H       1  LIG   0.0733   0.1000 
@<TRIPOS>BOND
1     2     1     ar
2     3     2     1
3     4     2     ar
4     5     4     1
5     6     4     ar
6     7     6     ar
7     8     7     1
8     9     8     1
9     10    8     1
10    11    10    1
11    12    11    ar
12    13    12    1
13    14    12    ar
14    15    14    1
15    16    14    ar
16    17    16    1
17    18    16    ar
18    19    11    ar
19    19    18    ar
20    20    19    1
21    21    1     ar
22    21    7     ar
23    21    20    1
24    22    6     1
25    23    22    1
26    24    22    1
27    25    22    1
28    26    10    2
29    27    20    1
30    28    27    1
31    29    27    1
32    30    29    1
33    31    29    1
34    32    27    1
35    32    29    1
36    33    32    1
37    34    32    1
@<TRIPOS>SUBSTRUCTURE
1   LIG    1    
 
########## Name        : 1VRT.lig
########## Description : AM1BCC_CHARGES =  -0.0002 ORIGINAL_CHARGES =  -0.0000

@<TRIPOS>MOLECULE
1VRT.lig
34    37    1     0     0    
SMALL
USER_CHARGES
@<TRIPOS>ATOM
1     N1       4.0540  -36.9310   22.2210 N.ar    1  LIG  -0.6650  -0.6200 
2     C1       4.9660  -36.2380   22.9390 C.ar    1  LIG   0.3947   0.1600 
3     H1       6.0082  -36.2811   22.6707 H       1  LIG   0.0281   0.1500 
4     C2       4.6240  -35.4500   24.0360 C.ar    1  LIG  -0.2334  -0.1500 
5     H2       5.3884  -34.9151   24.5740 H       1  LIG   0.1480   0.1500 
6     C3       3.3050  -35.3690   24.4150 C.ar    1  LIG  -0.0698  -0.1435 
7     C4       2.3460  -36.0770   23.6860 C.ar    1  LIG  -0.0398   0.1170 
8     N2       0.9890  -36.0280   24.1030 N.am    1  LIG  -0.4596  -0.5470 
9     H3       0.7643  -35.9928   25.0860 H       1  LIG   0.3311   0.3700 
10    C5      -0.1450  -36.0180   23.4080 C.2     1  LIG   0.7361   0.5438 
11    C6      -0.1190  -36.0770   21.8860 C.ar    1  LIG  -0.2550   0.0862 
12    C7      -1.1230  -35.3990   21.1890 C.ar    1  LIG  -0.0321  -0.1500 
13    H4      -1.7552  -34.6955   21.7041 H       1  LIG   0.1623   0.1500 
14    C8      -1.2960  -35.6300   19.8690 C.ar    1  LIG  -0.2723  -0.1500 
15    H5      -2.0662  -35.1073   19.3273 H       1  LIG   0.1522   0.1500 
16    C9      -0.4670  -36.5450   19.2400 C.ar    1  LIG   0.4373   0.1600 
17    H6      -0.5947  -36.7554   18.1915 H       1  LIG   0.0280   0.1500 
18    N3       0.5220  -37.2120   19.8740 N.ar    1  LIG  -0.6893  -0.6200 
19    C10      0.7040  -36.9790   21.1800 C.ar    1  LIG   0.6480   0.4100 
20    N4       1.7670  -37.6730   21.8260 N.pl3   1  LIG  -0.6924  -0.3690 
21    C11      2.7540  -36.8570   22.5840 C.ar    1  LIG   0.5805   0.4100 
22    C12      2.9040  -34.5090   25.6010 C.3     1  LIG  -0.0620   0.1435 
23    H7       2.2235  -33.7630   25.2820 H       1  LIG   0.0570   0.0000 
24    H8       2.4436  -35.1154   26.3371 H       1  LIG   0.0495   0.0000 
25    H9       3.7654  -34.0491   26.0108 H       1  LIG   0.0519   0.0000 
26    O1      -1.2400  -35.9060   23.9770 O.2     1  LIG  -0.6361  -0.5700 
27    C13      2.3440  -38.7570   21.0360 C.3     1  LIG   0.1354   0.0690 
28    H10      3.1238  -38.3754   20.4296 H       1  LIG   0.0981   0.1000 
29    C14      2.9380  -39.8900   21.8010 C.3     1  LIG  -0.1181  -0.2000 
30    H11      3.8890  -40.1268   21.3997 H       1  LIG   0.0732   0.1000 
31    H12      3.0430  -39.6129   22.8177 H       1  LIG   0.0789   0.1000 
32    C15      1.6390  -40.0610   21.0880 C.3     1  LIG  -0.1196  -0.2000 
33    H13      0.6832  -39.9283   21.5242 H       1  LIG   0.0807   0.1000 
34    H14      1.5292  -40.4423   20.1061 H       1  LIG   0.0733   0.1000 
@<TRIPOS>BOND
1     2     1     ar
2     3     2     1
3     4     2     ar
4     5     4     1
5     6     4     ar
6     7     6     ar
7     8     7     1
8     9     8     1
9     10    8     1
10    11    10    1
11    12    11    ar
12    13    12    1
13    14    12    ar
14    15    14    1
15    16    14    ar
16    17    16    1
17    18    16    ar
18    19    11    ar
19    19    18    ar
20    20    19    1
21    21    1     ar
22    21    7     ar
23    21    20    1
24    22    6     1
25    23    22    1
26    24    22    1
27    25    22    1
28    26    10    2
29    27    20    1
30    28    27    1
31    29    27    1
32    30    29    1
33    31    29    1
34    32    27    1
35    32    29    1
36    33    32    1
37    34    32    1
@<TRIPOS>SUBSTRUCTURE
1   LIG    1    
 
########## Name        : 1VRT.lig
########## Description : AM1BCC_CHARGES =  -0.0002 ORIGINAL_CHARGES =  -0.0000

@<TRIPOS>MOLECULE
1VRT.lig
34    37    1     0     0    
SMALL
USER_CHARGES
@<TRIPOS>ATOM
1     N1       4.0540  -36.9310   22.2210 N.ar    1  LIG  -0.6650  -0.6200 
2     C1       4.9660  -36.2380   22.9390 C.ar    1  LIG   0.3947   0.1600 
3     H1       6.0082  -36.2811   22.6707 H       1  LIG   0.0281   0.1500 
4     C2       4.6240  -35.4500   24.0360 C.ar    1  LIG  -0.2334  -0.1500 
5     H2       5.3884  -34.9151   24.5740 H       1  LIG   0.1480   0.1500 
6     C3       3.3050  -35.3690   24.4150 C.ar    1  LIG  -0.0698  -0.1435 
7     C4       2.3460  -36.0770   23.6860 C.ar    1  LIG  -0.0398   0.1170 
8     N2       0.9890  -36.0280   24.1030 N.am    1  LIG  -0.4596  -0.5470 
9     H3       0.7643  -35.9928   25.0860 H       1  LIG   0.3311   0.3700 
10    C5      -0.1450  -36.0180   23.4080 C.2     1  LIG   0.7361   0.5438 
11    C6      -0.1190  -36.0770   21.8860 C.ar    1  LIG  -0.2550   0.0862 
12    C7      -1.1230  -35.3990   21.1890 C.ar    1  LIG  -0.0321  -0.1500 
13    H4      -1.7552  -34.6955   21.7041 H       1  LIG   0.1623   0.1500 
14    C8      -1.2960  -35.6300   19.8690 C.ar    1  LIG  -0.2723  -0.1500 
15    H5      -2.0662  -35.1073   19.3273 H       1  LIG   0.1522   0.1500 
16    C9      -0.4670  -36.5450   19.2400 C.ar    1  LIG   0.4373   0.1600 
17    H6      -0.5947  -36.7554   18.1915 H       1  LIG   0.0280   0.1500 
18    N3       0.5220  -37.2120   19.8740 N.ar    1  LIG  -0.6893  -0.6200 
19    C10      0.7040  -36.9790   21.1800 C.ar    1  LIG   0.6480   0.4100 
20    N4       1.7670  -37.6730   21.8260 N.pl3   1  LIG  -0.6924  -0.3690 
21    C11      2.7540  -36.8570   22.5840 C.ar    1  LIG   0.5805   0.4100 
22    C12      2.9040  -34.5090   25.6010 C.3     1  LIG  -0.0620   0.1435 
23    H7       2.2235  -33.7630   25.2820 H       1  LIG   0.0570   0.0000 
24    H8       2.4436  -35.1154   26.3371 H       1  LIG   0.0495   0.0000 
25    H9       3.7654  -34.0491   26.0108 H       1  LIG   0.0519   0.0000 
26    O1      -1.2400  -35.9060   23.9770 O.2     1  LIG  -0.6361  -0.5700 
27    C13      2.3440  -38.7570   21.0360 C.3     1  LIG   0.1354   0.0690 
28    H10      3.1238  -38.3754   20.4296 H       1  LIG   0.0981   0.1000 
29    C14      2.9380  -39.8900   21.8010 C.3     1  LIG  -0.1181  -0.2000 
30    H11      3.8890  -40.1268   21.3997 H       1  LIG   0.0732   0.1000 
31    H12      3.0430  -39.6129   22.8177 H       1  LIG   0.0789   0.1000 
32    C15      1.6390  -40.0610   21.0880 C.3     1  LIG  -0.1196  -0.2000 
33    H13      0.6832  -39.9283   21.5242 H       1  LIG   0.0807   0.1000 
34    H14      1.5292  -40.4423   20.1061 H       1  LIG   0.0733   0.1000 
@<TRIPOS>BOND
1     2     1     ar
2     3     2     1
3     4     2     ar
4     5     4     1
5     6     4     ar
6     7     6     ar
7     8     7     1
8     9     8     1
9     10    8     1
10    11    10    1
11    12    11    ar
12    13    12    1
13    14    12    ar
14    15    14    1
15    16    14    ar
16    17    16    1
17    18    16    ar
18    19    11    ar
19    19    18    ar
20    20    19    1
21    21    1     ar
22    21    7     ar
23    21    20    1
24    22    6     1
25    23    22    1
26    24    22    1
27    25    22    1
28    26    10    2
29    27    20    1
30    28    27    1
31    29    27    1
32    30    29    1
33    31    29    1
34    32    27    1
35    32    29    1
36    33    32    1
37    34    32    1
@<TRIPOS>SUBSTRUCTURE
1   LIG    1    
 
########## Name        : 1VRT.lig
########## Description : AM1BCC_CHARGES =  -0.0002 ORIGINAL_CHARGES =  -0.0000

@<TRIPOS>MOLECULE
1VRT.lig
34    37    1     0     0    
SMALL
USER_CHARGES
@<TRIPOS>ATOM
1     N1       4.0540  -36.9310   22.2210 N.ar    1  LIG  -0.6650  -0.6200 
2     C1       4.9660  -36.2380   22.9390 C.ar    1  LIG   0.3947   0.1600 
3     H1       6.0082  -36.2811   22.6707 H       1  LIG   0.0281   0.1500 
4     C2       4.6240  -35.4500   24.0360 C.ar    1  LIG  -0.2334  -0.1500 
5     H2       5.3884  -34.9151   24.5740 H       1  LIG   0.1480   0.1500 
6     C3       3.3050  -35.3690   24.4150 C.ar    1  LIG  -0.0698  -0.1435 
7     C4       2.3460  -36.0770   23.6860 C.ar    1  LIG  -0.0398   0.1170 
8     N2       0.9890  -36.0280   24.1030 N.am    1  LIG  -0.4596  -0.5470 
9     H3       0.7643  -35.9928   25.0860 H       1  LIG   0.3311   0.3700 
10    C5      -0.1450  -36.0180   23.4080 C.2     1  LIG   0.7361   0.5438 
11    C6      -0.1190  -36.0770   21.8860 C.ar    1  LIG  -0.2550   0.0862 
12    C7      -1.1230  -35.3990   21.1890 C.ar    1  LIG  -0.0321  -0.1500 
13    H4      -1.7552  -34.6955   21.7041 H       1  LIG   0.1623   0.1500 
14    C8      -1.2960  -35.6300   19.8690 C.ar    1  LIG  -0.2723  -0.1500 
15    H5      -2.0662  -35.1073   19.3273 H       1  LIG   0.1522   0.1500 
16    C9      -0.4670  -36.5450   19.2400 C.ar    1  LIG   0.4373   0.1600 
17    H6      -0.5947  -36.7554   18.1915 H       1  LIG   0.0280   0.1500 
18    N3       0.5220  -37.2120   19.8740 N.ar    1  LIG  -0.6893  -0.6200 
19    C10      0.7040  -36.9790   21.1800 C.ar    1  LIG   0.6480   0.4100 
20    N4       1.7670  -37.6730   21.8260 N.pl3   1  LIG  -0.6924  -0.3690 
21    C11      2.7540  -36.8570   22.5840 C.ar    1  LIG   0.5805   0.4100 
22    C12      2.9040  -34.5090   25.6010 C.3     1  LIG  -0.0620   0.1435 
23    H7       2.2235  -33.7630   25.2820 H       1  LIG   0.0570   0.0000 
24    H8       2.4436  -35.1154   26.3371 H       1  LIG   0.0495   0.0000 
25    H9       3.7654  -34.0491   26.0108 H       1  LIG   0.0519   0.0000 
26    O1      -1.2400  -35.9060   23.9770 O.2     1  LIG  -0.6361  -0.5700 
27    C13      2.3440  -38.7570   21.0360 C.3     1  LIG   0.1354   0.0690 
28    H10      3.1238  -38.3754   20.4296 H       1  LIG   0.0981   0.1000 
29    C14      2.9380  -39.8900   21.8010 C.3     1  LIG  -0.1181  -0.2000 
30    H11      3.8890  -40.1268   21.3997 H       1  LIG   0.0732   0.1000 
31    H12      3.0430  -39.6129   22.8177 H       1  LIG   0.0789   0.1000 
32    C15      1.6390  -40.0610   21.0880 C.3     1  LIG  -0.1196  -0.2000 
33    H13      0.6832  -39.9283   21.5242 H       1  LIG   0.0807   0.1000 
34    H14      1.5292  -40.4423   20.1061 H       1  LIG   0.0733   0.1000 
@<TRIPOS>BOND
1     2     1     ar
2     3     2     1
3     4     2     ar
4     5     4     1
5     6     4     ar
6     7     6     ar
7     8     7     1
8     9     8     1
9     10    8     1
10    11    10    1
11    12    11    ar
12    13    12    1
13    14    12    ar
14    15    14    1
15    16    14    ar
16    17    16    1
17    18    16    ar
18    19    11    ar
19    19    18    ar
20    20    19    1
21    21    1     ar
22    21    7     ar
23    21    20    1
24    22    6     1
25    23    22    1
26    24    22    1
27    25    22    1
28    26    10    2
29    27    20    1
30    28    27    1
31    29    27    1
32    30    29    1
33    31    29    1
34    32    27    1
35    32    29    1
36    33    32    1
37    34    32    1
@<TRIPOS>SUBSTRUCTURE
1   LIG    1    
 
########## Name        : 1VRT.lig
########## Description : AM1BCC_CHARGES =  -0.0002 ORIGINAL_CHARGES =  -0.0000

@<TRIPOS>MOLECULE
1VRT.lig
34    37    1     0     0    
SMALL
USER_CHARGES
@<TRIPOS>ATOM
1     N1       4.0540  -36.9310   22.2210 N.ar    1  LIG  -0.6650  -0.6200 
2     C1       4.9660  -36.2380   22.9390 C.ar    1  LIG   0.3947   0.1600 
3     H1       6.0082  -36.2811   22.6707 H       1  LIG   0.0281   0.1500 
4     C2       4.6240  -35.4500   24.0360 C.ar    1  LIG  -0.2334  -0.1500 
5     H2       5.3884  -34.9151   24.5740 H       1  LIG   0.1480   0.1500 
6     C3       3.3050  -35.3690   24.4150 C.ar    1  LIG  -0.0698  -0.1435 
7     C4       2.3460  -36.0770   23.6860 C.ar    1  LIG  -0.0398   0.1170 
8     N2       0.9890  -36.0280   24.1030 N.am    1  LIG  -0.4596  -0.5470 
9     H3       0.7643  -35.9928   25.0860 H       1  LIG   0.3311   0.3700 
10    C5      -0.1450  -36.0180   23.4080 C.2     1  LIG   0.7361   0.5438 
11    C6      -0.1190  -36.0770   21.8860 C.ar    1  LIG  -0.2550   0.0862 
12    C7      -1.1230  -35.3990   21.1890 C.ar    1  LIG  -0.0321  -0.1500 
13    H4      -1.7552  -34.6955   21.7041 H       1  LIG   0.1623   0.1500 
14    C8      -1.2960  -35.6300   19.8690 C.ar    1  LIG  -0.2723  -0.1500 
15    H5      -2.0662  -35.1073   19.3273 H       1  LIG   0.1522   0.1500 
16    C9      -0.4670  -36.5450   19.2400 C.ar    1  LIG   0.4373   0.1600 
17    H6      -0.5947  -36.7554   18.1915 H       1  LIG   0.0280   0.1500 
18    N3       0.5220  -37.2120   19.8740 N.ar    1  LIG  -0.6893  -0.6200 
19    C10      0.7040  -36.9790   21.1800 C.ar    1  LIG   0.6480   0.4100 
20    N4       1.7670  -37.6730   21.8260 N.pl3   1  LIG  -0.6924  -0.3690 
21    C11      2.7540  -36.8570   22.5840 C.ar    1  LIG   0.5805   0.4100 
22    C12      2.9040  -34.5090   25.6010 C.3     1  LIG  -0.0620   0.1435 
23    H7       2.2235  -33.7630   25.2820 H       1  LIG   0.0570   0.0000 
24    H8       2.4436  -35.1154   26.3371 H       1  LIG   0.0495   0.0000 
25    H9       3.7654  -34.0491   26.0108 H       1  LIG   0.0519   0.0000 
26    O1      -1.2400  -35.9060   23.9770 O.2     1  LIG  -0.6361  -0.5700 
27    C13      2.3440  -38.7570   21.0360 C.3     1  LIG   0.1354   0.0690 
28    H10      3.1238  -38.3754   20.4296 H       1  LIG   0.0981   0.1000 
29    C14      2.9380  -39.8900   21.8010 C.3     1  LIG  -0.1181  -0.2000 
30    H11      3.8890  -40.1268   21.3997 H       1  LIG   0.0732   0.1000 
31    H12      3.0430  -39.6129   22.8177 H       1  LIG   0.0789   0.1000 
32    C15      1.6390  -40.0610   21.0880 C.3     1  LIG  -0.1196  -0.2000 
33    H13      0.6832  -39.9283   21.5242 H       1  LIG   0.0807   0.1000 
34    H14      1.5292  -40.4423   20.1061 H       1  LIG   0.0733   0.1000 
@<TRIPOS>BOND
1     2     1     ar
2     3     2     1
3     4     2     ar
4     5     4     1
5     6     4     ar
6     7     6     ar
7     8     7     1
8     9     8     1
9     10    8     1
10    11    10    1
11    12    11    ar
12    13    12    1
13    14    12    ar
14    15    14    1
15    16    14    ar
16    17    16    1
17    18    16    ar
18    19    11    ar
19    19    18    ar
20    20    19    1
21    21    1     ar
22    21    7     ar
23    21    20    1
24    22    6     1
25    23    22    1
26    24    22    1
27    25    22    1
28    26    10    2
29    27    20    1
30    28    27    1
31    29    27    1
32    30    29    1
33    31    29    1
34    32    27    1
35    32    29    1
36    33    32    1
37    34    32    1
@<TRIPOS>SUBSTRUCTURE
1   LIG    1    
 
########## Name        : 1VRT.lig
########## Description : AM1BCC_CHARGES =  -0.0002 ORIGINAL_CHARGES =  -0.0000

@<TRIPOS>MOLECULE
1VRT.lig
34    37    1     0     0    
SMALL
USER_CHARGES
@<TRIPOS>ATOM
1     N1       4.0540  -36.9310   22.2210 N.ar    1  LIG  -0.6650  -0.6200 
2     C1       4.9660  -36.2380   22.9390 C.ar    1  LIG   0.3947   0.1600 
3     H1       6.0082  -36.2811   22.6707 H       1  LIG   0.0281   0.1500 
4     C2       4.6240  -35.4500   24.0360 C.ar    1  LIG  -0.2334  -0.1500 
5     H2       5.3884  -34.9151   24.5740 H       1  LIG   0.1480   0.1500 
6     C3       3.3050  -35.3690   24.4150 C.ar    1  LIG  -0.0698  -0.1435 
7     C4       2.3460  -36.0770   23.6860 C.ar    1  LIG  -0.0398   0.1170 
8     N2       0.9890  -36.0280   24.1030 N.am    1  LIG  -0.4596  -0.5470 
9     H3       0.7643  -35.9928   25.0860 H       1  LIG   0.3311   0.3700 
10    C5      -0.1450  -36.0180   23.4080 C.2     1  LIG   0.7361   0.5438 
11    C6      -0.1190  -36.0770   21.8860 C.ar    1  LIG  -0.2550   0.0862 
12    C7      -1.1230  -35.3990   21.1890 C.ar    1  LIG  -0.0321  -0.1500 
13    H4      -1.7552  -34.6955   21.7041 H       1  LIG   0.1623   0.1500 
14    C8      -1.2960  -35.6300   19.8690 C.ar    1  LIG  -0.2723  -0.1500 
15    H5      -2.0662  -35.1073   19.3273 H       1  LIG   0.1522   0.1500 
16    C9      -0.4670  -36.5450   19.2400 C.ar    1  LIG   0.4373   0.1600 
17    H6      -0.5947  -36.7554   18.1915 H       1  LIG   0.0280   0.1500 
18    N3       0.5220  -37.2120   19.8740 N.ar    1  LIG  -0.6893  -0.6200 
19    C10      0.7040  -36.9790   21.1800 C.ar    1  LIG   0.6480   0.4100 
20    N4       1.7670  -37.6730   21.8260 N.pl3   1  LIG  -0.6924  -0.3690 
21    C11      2.7540  -36.8570   22.5840 C.ar    1  LIG   0.5805   0.4100 
22    C12      2.9040  -34.5090   25.6010 C.3     1  LIG  -0.0620   0.1435 
23    H7       2.2235  -33.7630   25.2820 H       1  LIG   0.0570   0.0000 
24    H8       2.4436  -35.1154   26.3371 H       1  LIG   0.0495   0.0000 
25    H9       3.7654  -34.0491   26.0108 H       1  LIG   0.0519   0.0000 
26    O1      -1.2400  -35.9060   23.9770 O.2     1  LIG  -0.6361  -0.5700 
27    C13      2.3440  -38.7570   21.0360 C.3     1  LIG   0.1354   0.0690 
28    H10      3.1238  -38.3754   20.4296 H       1  LIG   0.0981   0.1000 
29    C14      2.9380  -39.8900   21.8010 C.3     1  LIG  -0.1181  -0.2000 
30    H11      3.8890  -40.1268   21.3997 H       1  LIG   0.0732   0.1000 
31    H12      3.0430  -39.6129   22.8177 H       1  LIG   0.0789   0.1000 
32    C15      1.6390  -40.0610   21.0880 C.3     1  LIG  -0.1196  -0.2000 
33    H13      0.6832  -39.9283   21.5242 H       1  LIG   0.0807   0.1000 
34    H14      1.5292  -40.4423   20.1061 H       1  LIG   0.0733   0.1000 
@<TRIPOS>BOND
1     2     1     ar
2     3     2     1
3     4     2     ar
4     5     4     1
5     6     4     ar
6     7     6     ar
7     8     7     1
8     9     8     1
9     10    8     1
10    11    10    1
11    12    11    ar
12    13    12    1
13    14    12    ar
14    15    14    1
15    16    14    ar
16    17    16    1
17    18    16    ar
18    19    11    ar
19    19    18    ar
20    20    19    1
21    21    1     ar
22    21    7     ar
23    21    20    1
24    22    6     1
25    23    22    1
26    24    22    1
27    25    22    1
28    26    10    2
29    27    20    1
30    28    27    1
31    29    27    1
32    30    29    1
33    31    29    1
34    32    27    1
35    32    29    1
36    33    32    1
37    34    32    1
@<TRIPOS>SUBSTRUCTURE
1   LIG    1    
 
########## Name        : 1VRT.lig
########## Description : AM1BCC_CHARGES =  -0.0002 ORIGINAL_CHARGES =  -0.0000

@<TRIPOS>MOLECULE
1VRT.lig
34    37    1     0     0    
SMALL
USER_CHARGES
@<TRIPOS>ATOM
1     N1       4.0540  -36.9310   22.2210 N.ar    1  LIG  -0.6650  -0.6200 
2     C1       4.9660  -36.2380   22.9390 C.ar    1  LIG   0.3947   0.1600 
3     H1       6.0082  -36.2811   22.6707 H       1  LIG   0.0281   0.1500 
4     C2       4.6240  -35.4500   24.0360 C.ar    1  LIG  -0.2334  -0.1500 
5     H2       5.3884  -34.9151   24.5740 H       1  LIG   0.1480   0.1500 
6     C3       3.3050  -35.3690   24.4150 C.ar    1  LIG  -0.0698  -0.1435 
7     C4       2.3460  -36.0770   23.6860 C.ar    1  LIG  -0.0398   0.1170 
8     N2       0.9890  -36.0280   24.1030 N.am    1  LIG  -0.4596  -0.5470 
9     H3       0.7643  -35.9928   25.0860 H       1  LIG   0.3311   0.3700 
10    C5      -0.1450  -36.0180   23.4080 C.2     1  LIG   0.7361   0.5438 
11    C6      -0.1190  -36.0770   21.8860 C.ar    1  LIG  -0.2550   0.0862 
12    C7      -1.1230  -35.3990   21.1890 C.ar    1  LIG  -0.0321  -0.1500 
13    H4      -1.7552  -34.6955   21.7041 H       1  LIG   0.1623   0.1500 
14    C8      -1.2960  -35.6300   19.8690 C.ar    1  LIG  -0.2723  -0.1500 
15    H5      -2.0662  -35.1073   19.3273 H       1  LIG   0.1522   0.1500 
16    C9      -0.4670  -36.5450   19.2400 C.ar    1  LIG   0.4373   0.1600 
17    H6      -0.5947  -36.7554   18.1915 H       1  LIG   0.0280   0.1500 
18    N3       0.5220  -37.2120   19.8740 N.ar    1  LIG  -0.6893  -0.6200 
19    C10      0.7040  -36.9790   21.1800 C.ar    1  LIG   0.6480   0.4100 
20    N4       1.7670  -37.6730   21.8260 N.pl3   1  LIG  -0.6924  -0.3690 
21    C11      2.7540  -36.8570   22.5840 C.ar    1  LIG   0.5805   0.4100 
22    C12      2.9040  -34.5090   25.6010 C.3     1  LIG  -0.0620   0.1435 
23    H7       2.2235  -33.7630   25.2820 H       1  LIG   0.0570   0.0000 
24    H8       2.4436  -35.1154   26.3371 H       1  LIG   0.0495   0.0000 
25    H9       3.7654  -34.0491   26.0108 H       1  LIG   0.0519   0.0000 
26    O1      -1.2400  -35.9060   23.9770 O.2     1  LIG  -0.6361  -0.5700 
27    C13      2.3440  -38.7570   21.0360 C.3     1  LIG   0.1354   0.0690 
28    H10      3.1238  -38.3754   20.4296 H       1  LIG   0.0981   0.1000 
29    C14      2.9380  -39.8900   21.8010 C.3     1  LIG  -0.1181  -0.2000 
30    H11      3.8890  -40.1268   21.3997 H       1  LIG   0.0732   0.1000 
31    H12      3.0430  -39.6129   22.8177 H       1  LIG   0.0789   0.1000 
32    C15      1.6390  -40.0610   21.0880 C.3     1  LIG  -0.1196  -0.2000 
33    H13      0.6832  -39.9283   21.5242 H       1  LIG   0.0807   0.1000 
34    H14      1.5292  -40.4423   20.1061 H       1  LIG   0.0733   0.1000 
@<TRIPOS>BOND
1     2     1     ar
2     3     2     1
3     4     2     ar
4     5     4     1
5     6     4     ar
6     7     6     ar
7     8     7     1
8     9     8     1
9     10    8     1
10    11    10    1
11    12    11    ar
12    13    12    1
13    14    12    ar
14    15    14    1
15    16    14    ar
16    17    16    1
17    18    16    ar
18    19    11    ar
19    19    18    ar
20    20    19    1
21    21    1     ar
22    21    7     ar
23    21    20    1
24    22    6     1
25    23    22    1
26    24    22    1
27    25    22    1
28    26    10    2
29    27    20    1
30    28    27    1
31    29    27    1
32    30    29    1
33    31    29    1
34    32    27    1
35    32    29    1
36    33    32    1
37    34    32    1
@<TRIPOS>SUBSTRUCTURE
1   LIG    1    
 
########## Name        : 1VRT.lig
########## Description : AM1BCC_CHARGES =  -0.0002 ORIGINAL_CHARGES =  -0.0000

@<TRIPOS>MOLECULE
1VRT.lig
34    37    1     0     0    
SMALL
USER_CHARGES
@<TRIPOS>ATOM
1     N1       4.0540  -36.9310   22.2210 N.ar    1  LIG  -0.6650  -0.6200 
2     C1       4.9660  -36.2380   22.9390 C.ar    1  LIG   0.3947   0.1600 
3     H1       6.0082  -36.2811   22.6707 H       1  LIG   0.0281   0.1500 
4     C2       4.6240  -35.4500   24.0360 C.ar    1  LIG  -0.2334  -0.1500 
5     H2       5.3884  -34.9151   24.5740 H       1  LIG   0.1480   0.1500 
6     C3       3.3050  -35.3690   24.4150 C.ar    1  LIG  -0.0698  -0.1435 
7     C4       2.3460  -36.0770   23.6860 C.ar    1  LIG  -0.0398   0.1170 
8     N2       0.9890  -36.0280   24.1030 N.am    1  LIG  -0.4596  -0.5470 
9     H3       0.7643  -35.9928   25.0860 H       1  LIG   0.3311   0.3700 
10    C5      -0.1450  -36.0180   23.4080 C.2     1  LIG   0.7361   0.5438 
11    C6      -0.1190  -36.0770   21.8860 C.ar    1  LIG  -0.2550   0.0862 
12    C7      -1.1230  -35.3990   21.1890 C.ar    1  LIG  -0.0321  -0.1500 
13    H4      -1.7552  -34.6955   21.7041 H       1  LIG   0.1623   0.1500 
14    C8      -1.2960  -35.6300   19.8690 C.ar    1  LIG  -0.2723  -0.1500 
15    H5      -2.0662  -35.1073   19.3273 H       1  LIG   0.1522   0.1500 
16    C9      -0.4670  -36.5450   19.2400 C.ar    1  LIG   0.4373   0.1600 
17    H6      -0.5947  -36.7554   18.1915 H       1  LIG   0.0280   0.1500 
18    N3       0.5220  -37.2120   19.8740 N.ar    1  LIG  -0.6893  -0.6200 
19    C10      0.7040  -36.9790   21.1800 C.ar    1  LIG   0.6480   0.4100 
20    N4       1.7670  -37.6730   21.8260 N.pl3   1  LIG  -0.6924  -0.3690 
21    C11      2.7540  -36.8570   22.5840 C.ar    1  LIG   0.5805   0.4100 
22    C12      2.9040  -34.5090   25.6010 C.3     1  LIG  -0.0620   0.1435 
23    H7       2.2235  -33.7630   25.2820 H       1  LIG   0.0570   0.0000 
24    H8       2.4436  -35.1154   26.3371 H       1  LIG   0.0495   0.0000 
25    H9       3.7654  -34.0491   26.0108 H       1  LIG   0.0519   0.0000 
26    O1      -1.2400  -35.9060   23.9770 O.2     1  LIG  -0.6361  -0.5700 
27    C13      2.3440  -38.7570   21.0360 C.3     1  LIG   0.1354   0.0690 
28    H10      3.1238  -38.3754   20.4296 H       1  LIG   0.0981   0.1000 
29    C14      2.9380  -39.8900   21.8010 C.3     1  LIG  -0.1181  -0.2000 
30    H11      3.8890  -40.1268   21.3997 H       1  LIG   0.0732   0.1000 
31    H12      3.0430  -39.6129   22.8177 H       1  LIG   0.0789   0.1000 
32    C15      1.6390  -40.0610   21.0880 C.3     1  LIG  -0.1196  -0.2000 
33    H13      0.6832  -39.9283   21.5242 H       1  LIG   0.0807   0.1000 
34    H14      1.5292  -40.4423   20.1061 H       1  LIG   0.0733   0.1000 
@<TRIPOS>BOND
1     2     1     ar
2     3     2     1
3     4     2     ar
4     5     4     1
5     6     4     ar
6     7     6     ar
7     8     7     1
8     9     8     1
9     10    8     1
10    11    10    1
11    12    11    ar
12    13    12    1
13    14    12    ar
14    15    14    1
15    16    14    ar
16    17    16    1
17    18    16    ar
18    19    11    ar
19    19    18    ar
20    20    19    1
21    21    1     ar
22    21    7     ar
23    21    20    1
24    22    6     1
25    23    22    1
26    24    22    1
27    25    22    1
28    26    10    2
29    27    20    1
30    28    27    1
31    29    27    1
32    30    29    1
33    31    29    1
34    32    27    1
35    32    29    1
36    33    32    1
37    34    32    1
@<TRIPOS>SUBSTRUCTURE
1   LIG    1    
 
########## Name        : 1VRT.lig
########## Description : AM1BCC_CHARGES =  -0.0002 ORIGINAL_CHARGES =  -0.0000

@<TRIPOS>MOLECULE
1VRT.lig
34    37    1     0     0    
SMALL
USER_CHARGES
@<TRIPOS>ATOM
1     N1       4.0540  -36.9310   22.2210 N.ar    1  LIG  -0.6650  -0.6200 
2     C1       4.9660  -36.2380   22.9390 C.ar    1  LIG   0.3947   0.1600 
3     H1       6.0082  -36.2811   22.6707 H       1  LIG   0.0281   0.1500 
4     C2       4.6240  -35.4500   24.0360 C.ar    1  LIG  -0.2334  -0.1500 
5     H2       5.3884  -34.9151   24.5740 H       1  LIG   0.1480   0.1500 
6     C3       3.3050  -35.3690   24.4150 C.ar    1  LIG  -0.0698  -0.1435 
7     C4       2.3460  -36.0770   23.6860 C.ar    1  LIG  -0.0398   0.1170 
8     N2       0.9890  -36.0280   24.1030 N.am    1  LIG  -0.4596  -0.5470 
9     H3       0.7643  -35.9928   25.0860 H       1  LIG   0.3311   0.3700 
10    C5      -0.1450  -36.0180   23.4080 C.2     1  LIG   0.7361   0.5438 
11    C6      -0.1190  -36.0770   21.8860 C.ar    1  LIG  -0.2550   0.0862 
12    C7      -1.1230  -35.3990   21.1890 C.ar    1  LIG  -0.0321  -0.1500 
13    H4      -1.7552  -34.6955   21.7041 H       1  LIG   0.1623   0.1500 
14    C8      -1.2960  -35.6300   19.8690 C.ar    1  LIG  -0.2723  -0.1500 
15    H5      -2.0662  -35.1073   19.3273 H       1  LIG   0.1522   0.1500 
16    C9      -0.4670  -36.5450   19.2400 C.ar    1  LIG   0.4373   0.1600 
17    H6      -0.5947  -36.7554   18.1915 H       1  LIG   0.0280   0.1500 
18    N3       0.5220  -37.2120   19.8740 N.ar    1  LIG  -0.6893  -0.6200 
19    C10      0.7040  -36.9790   21.1800 C.ar    1  LIG   0.6480   0.4100 
20    N4       1.7670  -37.6730   21.8260 N.pl3   1  LIG  -0.6924  -0.3690 
21    C11      2.7540  -36.8570   22.5840 C.ar    1  LIG   0.5805   0.4100 
22    C12      2.9040  -34.5090   25.6010 C.3     1  LIG  -0.0620   0.1435 
23    H7       2.2235  -33.7630   25.2820 H       1  LIG   0.0570   0.0000 
24    H8       2.4436  -35.1154   26.3371 H       1  LIG   0.0495   0.0000 
25    H9       3.7654  -34.0491   26.0108 H       1  LIG   0.0519   0.0000 
26    O1      -1.2400  -35.9060   23.9770 O.2     1  LIG  -0.6361  -0.5700 
27    C13      2.3440  -38.7570   21.0360 C.3     1  LIG   0.1354   0.0690 
28    H10      3.1238  -38.3754   20.4296 H       1  LIG   0.0981   0.1000 
29    C14      2.9380  -39.8900   21.8010 C.3     1  LIG  -0.1181  -0.2000 
30    H11      3.8890  -40.1268   21.3997 H       1  LIG   0.0732   0.1000 
31    H12      3.0430  -39.6129   22.8177 H       1  LIG   0.0789   0.1000 
32    C15      1.6390  -40.0610   21.0880 C.3     1  LIG  -0.1196  -0.2000 
33    H13      0.6832  -39.9283   21.5242 H       1  LIG   0.0807   0.1000 
34    H14      1.5292  -40.4423   20.1061 H       1  LIG   0.0733   0.1000 
@<TRIPOS>BOND
1     2     1     ar
2     3     2     1
3     4     2     ar
4     5     4     1
5     6     4     ar
6     7     6     ar
7     8     7     1
8     9     8     1
9     10    8     1
10    11    10    1
11    12    11    ar
12    13    12    1
13    14    12    ar
14    15    14    1
15    16    14    ar
16    17    16    1
17    18    16    ar
18    19    11    ar
19    19    18    ar
20    20    19    1
21    21    1     ar
22    21    7     ar
23    21    20    1
24    22    6     1
25    23    22    1
26    24    22    1
27    25    22    1
28    26    10    2
29    27    20    1
30    28    27    1
31    29    27    1
32    30    29    1
33    31    29    1
34    32    27    1
35    32    29    1
36    33    32    1
37    34    32    1
@<TRIPOS>SUBSTRUCTURE
1   LIG    1    
 
########## Name        : 1VRT.lig
########## Description : AM1BCC_CHARGES =  -0.0002 ORIGINAL_CHARGES =  -0.0000

@<TRIPOS>MOLECULE
1VRT.lig
34    37    1     0     0    
SMALL
USER_CHARGES
@<TRIPOS>ATOM
1     N1       4.0540  -36.9310   22.2210 N.ar    1  LIG  -0.6650  -0.6200 
2     C1       4.9660  -36.2380   22.9390 C.ar    1  LIG   0.3947   0.1600 
3     H1       6.0082  -36.2811   22.6707 H       1  LIG   0.0281   0.1500 
4     C2       4.6240  -35.4500   24.0360 C.ar    1  LIG  -0.2334  -0.1500 
5     H2       5.3884  -34.9151   24.5740 H       1  LIG   0.1480   0.1500 
6     C3       3.3050  -35.3690   24.4150 C.ar    1  LIG  -0.0698  -0.1435 
7     C4       2.3460  -36.0770   23.6860 C.ar    1  LIG  -0.0398   0.1170 
8     N2       0.9890  -36.0280   24.1030 N.am    1  LIG  -0.4596  -0.5470 
9     H3       0.7643  -35.9928   25.0860 H       1  LIG   0.3311   0.3700 
10    C5      -0.1450  -36.0180   23.4080 C.2     1  LIG   0.7361   0.5438 
11    C6      -0.1190  -36.0770   21.8860 C.ar    1  LIG  -0.2550   0.0862 
12    C7      -1.1230  -35.3990   21.1890 C.ar    1  LIG  -0.0321  -0.1500 
13    H4      -1.7552  -34.6955   21.7041 H       1  LIG   0.1623   0.1500 
14    C8      -1.2960  -35.6300   19.8690 C.ar    1  LIG  -0.2723  -0.1500 
15    H5      -2.0662  -35.1073   19.3273 H       1  LIG   0.1522   0.1500 
16    C9      -0.4670  -36.5450   19.2400 C.ar    1  LIG   0.4373   0.1600 
17    H6      -0.5947  -36.7554   18.1915 H       1  LIG   0.0280   0.1500 
18    N3       0.5220  -37.2120   19.8740 N.ar    1  LIG  -0.6893  -0.6200 
19    C10      0.7040  -36.9790   21.1800 C.ar    1  LIG   0.6480   0.4100 
20    N4       1.7670  -37.6730   21.8260 N.pl3   1  LIG  -0.6924  -0.3690 
21    C11      2.7540  -36.8570   22.5840 C.ar    1  LIG   0.5805   0.4100 
22    C12      2.9040  -34.5090   25.6010 C.3     1  LIG  -0.0620   0.1435 
23    H7       2.2235  -33.7630   25.2820 H       1  LIG   0.0570   0.0000 
24    H8       2.4436  -35.1154   26.3371 H       1  LIG   0.0495   0.0000 
25    H9       3.7654  -34.0491   26.0108 H       1  LIG   0.0519   0.0000 
26    O1      -1.2400  -35.9060   23.9770 O.2     1  LIG  -0.6361  -0.5700 
27    C13      2.3440  -38.7570   21.0360 C.3     1  LIG   0.1354   0.0690 
28    H10      3.1238  -38.3754   20.4296 H       1  LIG   0.0981   0.1000 
29    C14      2.9380  -39.8900   21.8010 C.3     1  LIG  -0.1181  -0.2000 
30    H11      3.8890  -40.1268   21.3997 H       1  LIG   0.0732   0.1000 
31    H12      3.0430  -39.6129   22.8177 H       1  LIG   0.0789   0.1000 
32    C15      1.6390  -40.0610   21.0880 C.3     1  LIG  -0.1196  -0.2000 
33    H13      0.6832  -39.9283   21.5242 H       1  LIG   0.0807   0.1000 
34    H14      1.5292  -40.4423   20.1061 H       1  LIG   0.0733   0.1000 
@<TRIPOS>BOND
1     2     1     ar
2     3     2     1
3     4     2     ar
4     5     4     1
5     6     4     ar
6     7     6     ar
7     8     7     1
8     9     8     1
9     10    8     1
10    11    10    1
11    12    11    ar
12    13    12    1
13    14    12    ar
14    15    14    1
15    16    14    ar
16    17    16    1
17    18    16    ar
18    19    11    ar
19    19    18    ar
20    20    19    1
21    21    1     ar
22    21    7     ar
23    21    20    1
24    22    6     1
25    23    22    1
26    24    22    1
27    25    22    1
28    26    10    2
29    27    20    1
30    28    27    1
31    29    27    1
32    30    29    1
33    31    29    1
34    32    27    1
35    32    29    1
36    33    32    1
37    34    32    1
@<TRIPOS>SUBSTRUCTURE
1   LIG    1    
 
########## Name        : 1VRT.lig
########## Description : AM1BCC_CHARGES =  -0.0002 ORIGINAL_CHARGES =  -0.0000

@<TRIPOS>MOLECULE
1VRT.lig
34    37    1     0     0    
SMALL
USER_CHARGES
@<TRIPOS>ATOM
1     N1       4.0540  -36.9310   22.2210 N.ar    1  LIG  -0.6650  -0.6200 
2     C1       4.9660  -36.2380   22.9390 C.ar    1  LIG   0.3947   0.1600 
3     H1       6.0082  -36.2811   22.6707 H       1  LIG   0.0281   0.1500 
4     C2       4.6240  -35.4500   24.0360 C.ar    1  LIG  -0.2334  -0.1500 
5     H2       5.3884  -34.9151   24.5740 H       1  LIG   0.1480   0.1500 
6     C3       3.3050  -35.3690   24.4150 C.ar    1  LIG  -0.0698  -0.1435 
7     C4       2.3460  -36.0770   23.6860 C.ar    1  LIG  -0.0398   0.1170 
8     N2       0.9890  -36.0280   24.1030 N.am    1  LIG  -0.4596  -0.5470 
9     H3       0.7643  -35.9928   25.0860 H       1  LIG   0.3311   0.3700 
10    C5      -0.1450  -36.0180   23.4080 C.2     1  LIG   0.7361   0.5438 
11    C6      -0.1190  -36.0770   21.8860 C.ar    1  LIG  -0.2550   0.0862 
12    C7      -1.1230  -35.3990   21.1890 C.ar    1  LIG  -0.0321  -0.1500 
13    H4      -1.7552  -34.6955   21.7041 H       1  LIG   0.1623   0.1500 
14    C8      -1.2960  -35.6300   19.8690 C.ar    1  LIG  -0.2723  -0.1500 
15    H5      -2.0662  -35.1073   19.3273 H       1  LIG   0.1522   0.1500 
16    C9      -0.4670  -36.5450   19.2400 C.ar    1  LIG   0.4373   0.1600 
17    H6      -0.5947  -36.7554   18.1915 H       1  LIG   0.0280   0.1500 
18    N3       0.5220  -37.2120   19.8740 N.ar    1  LIG  -0.6893  -0.6200 
19    C10      0.7040  -36.9790   21.1800 C.ar    1  LIG   0.6480   0.4100 
20    N4       1.7670  -37.6730   21.8260 N.pl3   1  LIG  -0.6924  -0.3690 
21    C11      2.7540  -36.8570   22.5840 C.ar    1  LIG   0.5805   0.4100 
22    C12      2.9040  -34.5090   25.6010 C.3     1  LIG  -0.0620   0.1435 
23    H7       2.2235  -33.7630   25.2820 H       1  LIG   0.0570   0.0000 
24    H8       2.4436  -35.1154   26.3371 H       1  LIG   0.0495   0.0000 
25    H9       3.7654  -34.0491   26.0108 H       1  LIG   0.0519   0.0000 
26    O1      -1.2400  -35.9060   23.9770 O.2     1  LIG  -0.6361  -0.5700 
27    C13      2.3440  -38.7570   21.0360 C.3     1  LIG   0.1354   0.0690 
28    H10      3.1238  -38.3754   20.4296 H       1  LIG   0.0981   0.1000 
29    C14      2.9380  -39.8900   21.8010 C.3     1  LIG  -0.1181  -0.2000 
30    H11      3.8890  -40.1268   21.3997 H       1  LIG   0.0732   0.1000 
31    H12      3.0430  -39.6129   22.8177 H       1  LIG   0.0789   0.1000 
32    C15      1.6390  -40.0610   21.0880 C.3     1  LIG  -0.1196  -0.2000 
33    H13      0.6832  -39.9283   21.5242 H       1  LIG   0.0807   0.1000 
34    H14      1.5292  -40.4423   20.1061 H       1  LIG   0.0733   0.1000 
@<TRIPOS>BOND
1     2     1     ar
2     3     2     1
3     4     2     ar
4     5     4     1
5     6     4     ar
6     7     6     ar
7     8     7     1
8     9     8     1
9     10    8     1
10    11    10    1
11    12    11    ar
12    13    12    1
13    14    12    ar
14    15    14    1
15    16    14    ar
16    17    16    1
17    18    16    ar
18    19    11    ar
19    19    18    ar
20    20    19    1
21    21    1     ar
22    21    7     ar
23    21    20    1
24    22    6     1
25    23    22    1
26    24    22    1
27    25    22    1
28    26    10    2
29    27    20    1
30    28    27    1
31    29    27    1
32    30    29    1
33    31    29    1
34    32    27    1
35    32    29    1
36    33    32    1
37    34    32    1
@<TRIPOS>SUBSTRUCTURE
1   LIG    1    
 
########## Name        : 1VRT.lig
########## Description : AM1BCC_CHARGES =  -0.0002 ORIGINAL_CHARGES =  -0.0000

@<TRIPOS>MOLECULE
1VRT.lig
34    37    1     0     0    
SMALL
USER_CHARGES
@<TRIPOS>ATOM
1     N1       4.0540  -36.9310   22.2210 N.ar    1  LIG  -0.6650  -0.6200 
2     C1       4.9660  -36.2380   22.9390 C.ar    1  LIG   0.3947   0.1600 
3     H1       6.0082  -36.2811   22.6707 H       1  LIG   0.0281   0.1500 
4     C2       4.6240  -35.4500   24.0360 C.ar    1  LIG  -0.2334  -0.1500 
5     H2       5.3884  -34.9151   24.5740 H       1  LIG   0.1480   0.1500 
6     C3       3.3050  -35.3690   24.4150 C.ar    1  LIG  -0.0698  -0.1435 
7     C4       2.3460  -36.0770   23.6860 C.ar    1  LIG  -0.0398   0.1170 
8     N2       0.9890  -36.0280   24.1030 N.am    1  LIG  -0.4596  -0.5470 
9     H3       0.7643  -35.9928   25.0860 H       1  LIG   0.3311   0.3700 
10    C5      -0.1450  -36.0180   23.4080 C.2     1  LIG   0.7361   0.5438 
11    C6      -0.1190  -36.0770   21.8860 C.ar    1  LIG  -0.2550   0.0862 
12    C7      -1.1230  -35.3990   21.1890 C.ar    1  LIG  -0.0321  -0.1500 
13    H4      -1.7552  -34.6955   21.7041 H       1  LIG   0.1623   0.1500 
14    C8      -1.2960  -35.6300   19.8690 C.ar    1  LIG  -0.2723  -0.1500 
15    H5      -2.0662  -35.1073   19.3273 H       1  LIG   0.1522   0.1500 
16    C9      -0.4670  -36.5450   19.2400 C.ar    1  LIG   0.4373   0.1600 
17    H6      -0.5947  -36.7554   18.1915 H       1  LIG   0.0280   0.1500 
18    N3       0.5220  -37.2120   19.8740 N.ar    1  LIG  -0.6893  -0.6200 
19    C10      0.7040  -36.9790   21.1800 C.ar    1  LIG   0.6480   0.4100 
20    N4       1.7670  -37.6730   21.8260 N.pl3   1  LIG  -0.6924  -0.3690 
21    C11      2.7540  -36.8570   22.5840 C.ar    1  LIG   0.5805   0.4100 
22    C12      2.9040  -34.5090   25.6010 C.3     1  LIG  -0.0620   0.1435 
23    H7       2.2235  -33.7630   25.2820 H       1  LIG   0.0570   0.0000 
24    H8       2.4436  -35.1154   26.3371 H       1  LIG   0.0495   0.0000 
25    H9       3.7654  -34.0491   26.0108 H       1  LIG   0.0519   0.0000 
26    O1      -1.2400  -35.9060   23.9770 O.2     1  LIG  -0.6361  -0.5700 
27    C13      2.3440  -38.7570   21.0360 C.3     1  LIG   0.1354   0.0690 
28    H10      3.1238  -38.3754   20.4296 H       1  LIG   0.0981   0.1000 
29    C14      2.9380  -39.8900   21.8010 C.3     1  LIG  -0.1181  -0.2000 
30    H11      3.8890  -40.1268   21.3997 H       1  LIG   0.0732   0.1000 
31    H12      3.0430  -39.6129   22.8177 H       1  LIG   0.0789   0.1000 
32    C15      1.6390  -40.0610   21.0880 C.3     1  LIG  -0.1196  -0.2000 
33    H13      0.6832  -39.9283   21.5242 H       1  LIG   0.0807   0.1000 
34    H14      1.5292  -40.4423   20.1061 H       1  LIG   0.0733   0.1000 
@<TRIPOS>BOND
1     2     1     ar
2     3     2     1
3     4     2     ar
4     5     4     1
5     6     4     ar
6     7     6     ar
7     8     7     1
8     9     8     1
9     10    8     1
10    11    10    1
11    12    11    ar
12    13    12    1
13    14    12    ar
14    15    14    1
15    16    14    ar
16    17    16    1
17    18    16    ar
18    19    11    ar
19    19    18    ar
20    20    19    1
21    21    1     ar
22    21    7     ar
23    21    20    1
24    22    6     1
25    23    22    1
26    24    22    1
27    25    22    1
28    26    10    2
29    27    20    1
30    28    27    1
31    29    27    1
32    30    29    1
33    31    29    1
34    32    27    1
35    32    29    1
36    33    32    1
37    34    32    1
@<TRIPOS>SUBSTRUCTURE
1   LIG    1    
 
########## Name        : 1VRT.lig
########## Description : AM1BCC_CHARGES =  -0.0002 ORIGINAL_CHARGES =  -0.0000

@<TRIPOS>MOLECULE
1VRT.lig
34    37    1     0     0    
SMALL
USER_CHARGES
@<TRIPOS>ATOM
1     N1       4.0540  -36.9310   22.2210 N.ar    1  LIG  -0.6650  -0.6200 
2     C1       4.9660  -36.2380   22.9390 C.ar    1  LIG   0.3947   0.1600 
3     H1       6.0082  -36.2811   22.6707 H       1  LIG   0.0281   0.1500 
4     C2       4.6240  -35.4500   24.0360 C.ar    1  LIG  -0.2334  -0.1500 
5     H2       5.3884  -34.9151   24.5740 H       1  LIG   0.1480   0.1500 
6     C3       3.3050  -35.3690   24.4150 C.ar    1  LIG  -0.0698  -0.1435 
7     C4       2.3460  -36.0770   23.6860 C.ar    1  LIG  -0.0398   0.1170 
8     N2       0.9890  -36.0280   24.1030 N.am    1  LIG  -0.4596  -0.5470 
9     H3       0.7643  -35.9928   25.0860 H       1  LIG   0.3311   0.3700 
10    C5      -0.1450  -36.0180   23.4080 C.2     1  LIG   0.7361   0.5438 
11    C6      -0.1190  -36.0770   21.8860 C.ar    1  LIG  -0.2550   0.0862 
12    C7      -1.1230  -35.3990   21.1890 C.ar    1  LIG  -0.0321  -0.1500 
13    H4      -1.7552  -34.6955   21.7041 H       1  LIG   0.1623   0.1500 
14    C8      -1.2960  -35.6300   19.8690 C.ar    1  LIG  -0.2723  -0.1500 
15    H5      -2.0662  -35.1073   19.3273 H       1  LIG   0.1522   0.1500 
16    C9      -0.4670  -36.5450   19.2400 C.ar    1  LIG   0.4373   0.1600 
17    H6      -0.5947  -36.7554   18.1915 H       1  LIG   0.0280   0.1500 
18    N3       0.5220  -37.2120   19.8740 N.ar    1  LIG  -0.6893  -0.6200 
19    C10      0.7040  -36.9790   21.1800 C.ar    1  LIG   0.6480   0.4100 
20    N4       1.7670  -37.6730   21.8260 N.pl3   1  LIG  -0.6924  -0.3690 
21    C11      2.7540  -36.8570   22.5840 C.ar    1  LIG   0.5805   0.4100 
22    C12      2.9040  -34.5090   25.6010 C.3     1  LIG  -0.0620   0.1435 
23    H7       2.2235  -33.7630   25.2820 H       1  LIG   0.0570   0.0000 
24    H8       2.4436  -35.1154   26.3371 H       1  LIG   0.0495   0.0000 
25    H9       3.7654  -34.0491   26.0108 H       1  LIG   0.0519   0.0000 
26    O1      -1.2400  -35.9060   23.9770 O.2     1  LIG  -0.6361  -0.5700 
27    C13      2.3440  -38.7570   21.0360 C.3     1  LIG   0.1354   0.0690 
28    H10      3.1238  -38.3754   20.4296 H       1  LIG   0.0981   0.1000 
29    C14      2.9380  -39.8900   21.8010 C.3     1  LIG  -0.1181  -0.2000 
30    H11      3.8890  -40.1268   21.3997 H       1  LIG   0.0732   0.1000 
31    H12      3.0430  -39.6129   22.8177 H       1  LIG   0.0789   0.1000 
32    C15      1.6390  -40.0610   21.0880 C.3     1  LIG  -0.1196  -0.2000 
33    H13      0.6832  -39.9283   21.5242 H       1  LIG   0.0807   0.1000 
34    H14      1.5292  -40.4423   20.1061 H       1  LIG   0.0733   0.1000 
@<TRIPOS>BOND
1     2     1     ar
2     3     2     1
3     4     2     ar
4     5     4     1
5     6     4     ar
6     7     6     ar
7     8     7     1
8     9     8     1
9     10    8     1
10    11    10    1
11    12    11    ar
12    13    12    1
13    14    12    ar
14    15    14    1
15    16    14    ar
16    17    16    1
17    18    16    ar
18    19    11    ar
19    19    18    ar
20    20    19    1
21    21    1     ar
22    21    7     ar
23    21    20    1
24    22    6     1
25    23    22    1
26    24    22    1
27    25    22    1
28    26    10    2
29    27    20    1
30    28    27    1
31    29    27    1
32    30    29    1
33    31    29    1
34    32    27    1
35    32    29    1
36    33    32    1
37    34    32    1
@<TRIPOS>SUBSTRUCTURE
1   LIG    1    
 
########## Name        : 1VRT.lig
########## Description : AM1BCC_CHARGES =  -0.0002 ORIGINAL_CHARGES =  -0.0000

@<TRIPOS>MOLECULE
1VRT.lig
34    37    1     0     0    
SMALL
USER_CHARGES
@<TRIPOS>ATOM
1     N1       4.0540  -36.9310   22.2210 N.ar    1  LIG  -0.6650  -0.6200 
2     C1       4.9660  -36.2380   22.9390 C.ar    1  LIG   0.3947   0.1600 
3     H1       6.0082  -36.2811   22.6707 H       1  LIG   0.0281   0.1500 
4     C2       4.6240  -35.4500   24.0360 C.ar    1  LIG  -0.2334  -0.1500 
5     H2       5.3884  -34.9151   24.5740 H       1  LIG   0.1480   0.1500 
6     C3       3.3050  -35.3690   24.4150 C.ar    1  LIG  -0.0698  -0.1435 
7     C4       2.3460  -36.0770   23.6860 C.ar    1  LIG  -0.0398   0.1170 
8     N2       0.9890  -36.0280   24.1030 N.am    1  LIG  -0.4596  -0.5470 
9     H3       0.7643  -35.9928   25.0860 H       1  LIG   0.3311   0.3700 
10    C5      -0.1450  -36.0180   23.4080 C.2     1  LIG   0.7361   0.5438 
11    C6      -0.1190  -36.0770   21.8860 C.ar    1  LIG  -0.2550   0.0862 
12    C7      -1.1230  -35.3990   21.1890 C.ar    1  LIG  -0.0321  -0.1500 
13    H4      -1.7552  -34.6955   21.7041 H       1  LIG   0.1623   0.1500 
14    C8      -1.2960  -35.6300   19.8690 C.ar    1  LIG  -0.2723  -0.1500 
15    H5      -2.0662  -35.1073   19.3273 H       1  LIG   0.1522   0.1500 
16    C9      -0.4670  -36.5450   19.2400 C.ar    1  LIG   0.4373   0.1600 
17    H6      -0.5947  -36.7554   18.1915 H       1  LIG   0.0280   0.1500 
18    N3       0.5220  -37.2120   19.8740 N.ar    1  LIG  -0.6893  -0.6200 
19    C10      0.7040  -36.9790   21.1800 C.ar    1  LIG   0.6480   0.4100 
20    N4       1.7670  -37.6730   21.8260 N.pl3   1  LIG  -0.6924  -0.3690 
21    C11      2.7540  -36.8570   22.5840 C.ar    1  LIG   0.5805   0.4100 
22    C12      2.9040  -34.5090   25.6010 C.3     1  LIG  -0.0620   0.1435 
23    H7       2.2235  -33.7630   25.2820 H       1  LIG   0.0570   0.0000 
24    H8       2.4436  -35.1154   26.3371 H       1  LIG   0.0495   0.0000 
25    H9       3.7654  -34.0491   26.0108 H       1  LIG   0.0519   0.0000 
26    O1      -1.2400  -35.9060   23.9770 O.2     1  LIG  -0.6361  -0.5700 
27    C13      2.3440  -38.7570   21.0360 C.3     1  LIG   0.1354   0.0690 
28    H10      3.1238  -38.3754   20.4296 H       1  LIG   0.0981   0.1000 
29    C14      2.9380  -39.8900   21.8010 C.3     1  LIG  -0.1181  -0.2000 
30    H11      3.8890  -40.1268   21.3997 H       1  LIG   0.0732   0.1000 
31    H12      3.0430  -39.6129   22.8177 H       1  LIG   0.0789   0.1000 
32    C15      1.6390  -40.0610   21.0880 C.3     1  LIG  -0.1196  -0.2000 
33    H13      0.6832  -39.9283   21.5242 H       1  LIG   0.0807   0.1000 
34    H14      1.5292  -40.4423   20.1061 H       1  LIG   0.0733   0.1000 
@<TRIPOS>BOND
1     2     1     ar
2     3     2     1
3     4     2     ar
4     5     4     1
5     6     4     ar
6     7     6     ar
7     8     7     1
8     9     8     1
9     10    8     1
10    11    10    1
11    12    11    ar
12    13    12    1
13    14    12    ar
14    15    14    1
15    16    14    ar
16    17    16    1
17    18    16    ar
18    19    11    ar
19    19    18    ar
20    20    19    1
21    21    1     ar
22    21    7     ar
23    21    20    1
24    22    6     1
25    23    22    1
26    24    22    1
27    25    22    1
28    26    10    2
29    27    20    1
30    28    27    1
31    29    27    1
32    30    29    1
33    31    29    1
34    32    27    1
35    32    29    1
36    33    32    1
37    34    32    1
@<TRIPOS>SUBSTRUCTURE
1   LIG    1    
 
########## Name        : 1VRT.lig
########## Description : AM1BCC_CHARGES =  -0.0002 ORIGINAL_CHARGES =  -0.0000

@<TRIPOS>MOLECULE
1VRT.lig
34    37    1     0     0    
SMALL
USER_CHARGES
@<TRIPOS>ATOM
1     N1       4.0540  -36.9310   22.2210 N.ar    1  LIG  -0.6650  -0.6200 
2     C1       4.9660  -36.2380   22.9390 C.ar    1  LIG   0.3947   0.1600 
3     H1       6.0082  -36.2811   22.6707 H       1  LIG   0.0281   0.1500 
4     C2       4.6240  -35.4500   24.0360 C.ar    1  LIG  -0.2334  -0.1500 
5     H2       5.3884  -34.9151   24.5740 H       1  LIG   0.1480   0.1500 
6     C3       3.3050  -35.3690   24.4150 C.ar    1  LIG  -0.0698  -0.1435 
7     C4       2.3460  -36.0770   23.6860 C.ar    1  LIG  -0.0398   0.1170 
8     N2       0.9890  -36.0280   24.1030 N.am    1  LIG  -0.4596  -0.5470 
9     H3       0.7643  -35.9928   25.0860 H       1  LIG   0.3311   0.3700 
10    C5      -0.1450  -36.0180   23.4080 C.2     1  LIG   0.7361   0.5438 
11    C6      -0.1190  -36.0770   21.8860 C.ar    1  LIG  -0.2550   0.0862 
12    C7      -1.1230  -35.3990   21.1890 C.ar    1  LIG  -0.0321  -0.1500 
13    H4      -1.7552  -34.6955   21.7041 H       1  LIG   0.1623   0.1500 
14    C8      -1.2960  -35.6300   19.8690 C.ar    1  LIG  -0.2723  -0.1500 
15    H5      -2.0662  -35.1073   19.3273 H       1  LIG   0.1522   0.1500 
16    C9      -0.4670  -36.5450   19.2400 C.ar    1  LIG   0.4373   0.1600 
17    H6      -0.5947  -36.7554   18.1915 H       1  LIG   0.0280   0.1500 
18    N3       0.5220  -37.2120   19.8740 N.ar    1  LIG  -0.6893  -0.6200 
19    C10      0.7040  -36.9790   21.1800 C.ar    1  LIG   0.6480   0.4100 
20    N4       1.7670  -37.6730   21.8260 N.pl3   1  LIG  -0.6924  -0.3690 
21    C11      2.7540  -36.8570   22.5840 C.ar    1  LIG   0.5805   0.4100 
22    C12      2.9040  -34.5090   25.6010 C.3     1  LIG  -0.0620   0.1435 
23    H7       2.2235  -33.7630   25.2820 H       1  LIG   0.0570   0.0000 
24    H8       2.4436  -35.1154   26.3371 H       1  LIG   0.0495   0.0000 
25    H9       3.7654  -34.0491   26.0108 H       1  LIG   0.0519   0.0000 
26    O1      -1.2400  -35.9060   23.9770 O.2     1  LIG  -0.6361  -0.5700 
27    C13      2.3440  -38.7570   21.0360 C.3     1  LIG   0.1354   0.0690 
28    H10      3.1238  -38.3754   20.4296 H       1  LIG   0.0981   0.1000 
29    C14      2.9380  -39.8900   21.8010 C.3     1  LIG  -0.1181  -0.2000 
30    H11      3.8890  -40.1268   21.3997 H       1  LIG   0.0732   0.1000 
31    H12      3.0430  -39.6129   22.8177 H       1  LIG   0.0789   0.1000 
32    C15      1.6390  -40.0610   21.0880 C.3     1  LIG  -0.1196  -0.2000 
33    H13      0.6832  -39.9283   21.5242 H       1  LIG   0.0807   0.1000 
34    H14      1.5292  -40.4423   20.1061 H       1  LIG   0.0733   0.1000 
@<TRIPOS>BOND
1     2     1     ar
2     3     2     1
3     4     2     ar
4     5     4     1
5     6     4     ar
6     7     6     ar
7     8     7     1
8     9     8     1
9     10    8     1
10    11    10    1
11    12    11    ar
12    13    12    1
13    14    12    ar
14    15    14    1
15    16    14    ar
16    17    16    1
17    18    16    ar
18    19    11    ar
19    19    18    ar
20    20    19    1
21    21    1     ar
22    21    7     ar
23    21    20    1
24    22    6     1
25    23    22    1
26    24    22    1
27    25    22    1
28    26    10    2
29    27    20    1
30    28    27    1
31    29    27    1
32    30    29    1
33    31    29    1
34    32    27    1
35    32    29    1
36    33    32    1
37    34    32    1
@<TRIPOS>SUBSTRUCTURE
1   LIG    1    
 
########## Name        : 1VRT.lig
########## Description : AM1BCC_CHARGES =  -0.0002 ORIGINAL_CHARGES =  -0.0000

@<TRIPOS>MOLECULE
1VRT.lig
34    37    1     0     0    
SMALL
USER_CHARGES
@<TRIPOS>ATOM
1     N1       4.0540  -36.9310   22.2210 N.ar    1  LIG  -0.6650  -0.6200 
2     C1       4.9660  -36.2380   22.9390 C.ar    1  LIG   0.3947   0.1600 
3     H1       6.0082  -36.2811   22.6707 H       1  LIG   0.0281   0.1500 
4     C2       4.6240  -35.4500   24.0360 C.ar    1  LIG  -0.2334  -0.1500 
5     H2       5.3884  -34.9151   24.5740 H       1  LIG   0.1480   0.1500 
6     C3       3.3050  -35.3690   24.4150 C.ar    1  LIG  -0.0698  -0.1435 
7     C4       2.3460  -36.0770   23.6860 C.ar    1  LIG  -0.0398   0.1170 
8     N2       0.9890  -36.0280   24.1030 N.am    1  LIG  -0.4596  -0.5470 
9     H3       0.7643  -35.9928   25.0860 H       1  LIG   0.3311   0.3700 
10    C5      -0.1450  -36.0180   23.4080 C.2     1  LIG   0.7361   0.5438 
11    C6      -0.1190  -36.0770   21.8860 C.ar    1  LIG  -0.2550   0.0862 
12    C7      -1.1230  -35.3990   21.1890 C.ar    1  LIG  -0.0321  -0.1500 
13    H4      -1.7552  -34.6955   21.7041 H       1  LIG   0.1623   0.1500 
14    C8      -1.2960  -35.6300   19.8690 C.ar    1  LIG  -0.2723  -0.1500 
15    H5      -2.0662  -35.1073   19.3273 H       1  LIG   0.1522   0.1500 
16    C9      -0.4670  -36.5450   19.2400 C.ar    1  LIG   0.4373   0.1600 
17    H6      -0.5947  -36.7554   18.1915 H       1  LIG   0.0280   0.1500 
18    N3       0.5220  -37.2120   19.8740 N.ar    1  LIG  -0.6893  -0.6200 
19    C10      0.7040  -36.9790   21.1800 C.ar    1  LIG   0.6480   0.4100 
20    N4       1.7670  -37.6730   21.8260 N.pl3   1  LIG  -0.6924  -0.3690 
21    C11      2.7540  -36.8570   22.5840 C.ar    1  LIG   0.5805   0.4100 
22    C12      2.9040  -34.5090   25.6010 C.3     1  LIG  -0.0620   0.1435 
23    H7       2.2235  -33.7630   25.2820 H       1  LIG   0.0570   0.0000 
24    H8       2.4436  -35.1154   26.3371 H       1  LIG   0.0495   0.0000 
25    H9       3.7654  -34.0491   26.0108 H       1  LIG   0.0519   0.0000 
26    O1      -1.2400  -35.9060   23.9770 O.2     1  LIG  -0.6361  -0.5700 
27    C13      2.3440  -38.7570   21.0360 C.3     1  LIG   0.1354   0.0690 
28    H10      3.1238  -38.3754   20.4296 H       1  LIG   0.0981   0.1000 
29    C14      2.9380  -39.8900   21.8010 C.3     1  LIG  -0.1181  -0.2000 
30    H11      3.8890  -40.1268   21.3997 H       1  LIG   0.0732   0.1000 
31    H12      3.0430  -39.6129   22.8177 H       1  LIG   0.0789   0.1000 
32    C15      1.6390  -40.0610   21.0880 C.3     1  LIG  -0.1196  -0.2000 
33    H13      0.6832  -39.9283   21.5242 H       1  LIG   0.0807   0.1000 
34    H14      1.5292  -40.4423   20.1061 H       1  LIG   0.0733   0.1000 
@<TRIPOS>BOND
1     2     1     ar
2     3     2     1
3     4     2     ar
4     5     4     1
5     6     4     ar
6     7     6     ar
7     8     7     1
8     9     8     1
9     10    8     1
10    11    10    1
11    12    11    ar
12    13    12    1
13    14    12    ar
14    15    14    1
15    16    14    ar
16    17    16    1
17    18    16    ar
18    19    11    ar
19    19    18    ar
20    20    19    1
21    21    1     ar
22    21    7     ar
23    21    20    1
24    22    6     1
25    23    22    1
26    24    22    1
27    25    22    1
28    26    10    2
29    27    20    1
30    28    27    1
31    29    27    1
32    30    29    1
33    31    29    1
34    32    27    1
35    32    29    1
36    33    32    1
37    34    32    1
@<TRIPOS>SUBSTRUCTURE
1   LIG    1    
 
########## Name        : 1VRT.lig
########## Description : AM1BCC_CHARGES =  -0.0002 ORIGINAL_CHARGES =  -0.0000

@<TRIPOS>MOLECULE
1VRT.lig
34    37    1     0     0    
SMALL
USER_CHARGES
@<TRIPOS>ATOM
1     N1       4.0540  -36.9310   22.2210 N.ar    1  LIG  -0.6650  -0.6200 
2     C1       4.9660  -36.2380   22.9390 C.ar    1  LIG   0.3947   0.1600 
3     H1       6.0082  -36.2811   22.6707 H       1  LIG   0.0281   0.1500 
4     C2       4.6240  -35.4500   24.0360 C.ar    1  LIG  -0.2334  -0.1500 
5     H2       5.3884  -34.9151   24.5740 H       1  LIG   0.1480   0.1500 
6     C3       3.3050  -35.3690   24.4150 C.ar    1  LIG  -0.0698  -0.1435 
7     C4       2.3460  -36.0770   23.6860 C.ar    1  LIG  -0.0398   0.1170 
8     N2       0.9890  -36.0280   24.1030 N.am    1  LIG  -0.4596  -0.5470 
9     H3       0.7643  -35.9928   25.0860 H       1  LIG   0.3311   0.3700 
10    C5      -0.1450  -36.0180   23.4080 C.2     1  LIG   0.7361   0.5438 
11    C6      -0.1190  -36.0770   21.8860 C.ar    1  LIG  -0.2550   0.0862 
12    C7      -1.1230  -35.3990   21.1890 C.ar    1  LIG  -0.0321  -0.1500 
13    H4      -1.7552  -34.6955   21.7041 H       1  LIG   0.1623   0.1500 
14    C8      -1.2960  -35.6300   19.8690 C.ar    1  LIG  -0.2723  -0.1500 
15    H5      -2.0662  -35.1073   19.3273 H       1  LIG   0.1522   0.1500 
16    C9      -0.4670  -36.5450   19.2400 C.ar    1  LIG   0.4373   0.1600 
17    H6      -0.5947  -36.7554   18.1915 H       1  LIG   0.0280   0.1500 
18    N3       0.5220  -37.2120   19.8740 N.ar    1  LIG  -0.6893  -0.6200 
19    C10      0.7040  -36.9790   21.1800 C.ar    1  LIG   0.6480   0.4100 
20    N4       1.7670  -37.6730   21.8260 N.pl3   1  LIG  -0.6924  -0.3690 
21    C11      2.7540  -36.8570   22.5840 C.ar    1  LIG   0.5805   0.4100 
22    C12      2.9040  -34.5090   25.6010 C.3     1  LIG  -0.0620   0.1435 
23    H7       2.2235  -33.7630   25.2820 H       1  LIG   0.0570   0.0000 
24    H8       2.4436  -35.1154   26.3371 H       1  LIG   0.0495   0.0000 
25    H9       3.7654  -34.0491   26.0108 H       1  LIG   0.0519   0.0000 
26    O1      -1.2400  -35.9060   23.9770 O.2     1  LIG  -0.6361  -0.5700 
27    C13      2.3440  -38.7570   21.0360 C.3     1  LIG   0.1354   0.0690 
28    H10      3.1238  -38.3754   20.4296 H       1  LIG   0.0981   0.1000 
29    C14      2.9380  -39.8900   21.8010 C.3     1  LIG  -0.1181  -0.2000 
30    H11      3.8890  -40.1268   21.3997 H       1  LIG   0.0732   0.1000 
31    H12      3.0430  -39.6129   22.8177 H       1  LIG   0.0789   0.1000 
32    C15      1.6390  -40.0610   21.0880 C.3     1  LIG  -0.1196  -0.2000 
33    H13      0.6832  -39.9283   21.5242 H       1  LIG   0.0807   0.1000 
34    H14      1.5292  -40.4423   20.1061 H       1  LIG   0.0733   0.1000 
@<TRIPOS>BOND
1     2     1     ar
2     3     2     1
3     4     2     ar
4     5     4     1
5     6     4     ar
6     7     6     ar
7     8     7     1
8     9     8     1
9     10    8     1
10    11    10    1
11    12    11    ar
12    13    12    1
13    14    12    ar
14    15    14    1
15    16    14    ar
16    17    16    1
17    18    16    ar
18    19    11    ar
19    19    18    ar
20    20    19    1
21    21    1     ar
22    21    7     ar
23    21    20    1
24    22    6     1
25    23    22    1
26    24    22    1
27    25    22    1
28    26    10    2
29    27    20    1
30    28    27    1
31    29    27    1
32    30    29    1
33    31    29    1
34    32    27    1
35    32    29    1
36    33    32    1
37    34    32    1
@<TRIPOS>SUBSTRUCTURE
1   LIG    1    
 
########## Name        : 1VRT.lig
########## Description : AM1BCC_CHARGES =  -0.0002 ORIGINAL_CHARGES =  -0.0000

@<TRIPOS>MOLECULE
1VRT.lig
34    37    1     0     0    
SMALL
USER_CHARGES
@<TRIPOS>ATOM
1     N1       4.0540  -36.9310   22.2210 N.ar    1  LIG  -0.6650  -0.6200 
2     C1       4.9660  -36.2380   22.9390 C.ar    1  LIG   0.3947   0.1600 
3     H1       6.0082  -36.2811   22.6707 H       1  LIG   0.0281   0.1500 
4     C2       4.6240  -35.4500   24.0360 C.ar    1  LIG  -0.2334  -0.1500 
5     H2       5.3884  -34.9151   24.5740 H       1  LIG   0.1480   0.1500 
6     C3       3.3050  -35.3690   24.4150 C.ar    1  LIG  -0.0698  -0.1435 
7     C4       2.3460  -36.0770   23.6860 C.ar    1  LIG  -0.0398   0.1170 
8     N2       0.9890  -36.0280   24.1030 N.am    1  LIG  -0.4596  -0.5470 
9     H3       0.7643  -35.9928   25.0860 H       1  LIG   0.3311   0.3700 
10    C5      -0.1450  -36.0180   23.4080 C.2     1  LIG   0.7361   0.5438 
11    C6      -0.1190  -36.0770   21.8860 C.ar    1  LIG  -0.2550   0.0862 
12    C7      -1.1230  -35.3990   21.1890 C.ar    1  LIG  -0.0321  -0.1500 
13    H4      -1.7552  -34.6955   21.7041 H       1  LIG   0.1623   0.1500 
14    C8      -1.2960  -35.6300   19.8690 C.ar    1  LIG  -0.2723  -0.1500 
15    H5      -2.0662  -35.1073   19.3273 H       1  LIG   0.1522   0.1500 
16    C9      -0.4670  -36.5450   19.2400 C.ar    1  LIG   0.4373   0.1600 
17    H6      -0.5947  -36.7554   18.1915 H       1  LIG   0.0280   0.1500 
18    N3       0.5220  -37.2120   19.8740 N.ar    1  LIG  -0.6893  -0.6200 
19    C10      0.7040  -36.9790   21.1800 C.ar    1  LIG   0.6480   0.4100 
20    N4       1.7670  -37.6730   21.8260 N.pl3   1  LIG  -0.6924  -0.3690 
21    C11      2.7540  -36.8570   22.5840 C.ar    1  LIG   0.5805   0.4100 
22    C12      2.9040  -34.5090   25.6010 C.3     1  LIG  -0.0620   0.1435 
23    H7       2.2235  -33.7630   25.2820 H       1  LIG   0.0570   0.0000 
24    H8       2.4436  -35.1154   26.3371 H       1  LIG   0.0495   0.0000 
25    H9       3.7654  -34.0491   26.0108 H       1  LIG   0.0519   0.0000 
26    O1      -1.2400  -35.9060   23.9770 O.2     1  LIG  -0.6361  -0.5700 
27    C13      2.3440  -38.7570   21.0360 C.3     1  LIG   0.1354   0.0690 
28    H10      3.1238  -38.3754   20.4296 H       1  LIG   0.0981   0.1000 
29    C14      2.9380  -39.8900   21.8010 C.3     1  LIG  -0.1181  -0.2000 
30    H11      3.8890  -40.1268   21.3997 H       1  LIG   0.0732   0.1000 
31    H12      3.0430  -39.6129   22.8177 H       1  LIG   0.0789   0.1000 
32    C15      1.6390  -40.0610   21.0880 C.3     1  LIG  -0.1196  -0.2000 
33    H13      0.6832  -39.9283   21.5242 H       1  LIG   0.0807   0.1000 
34    H14      1.5292  -40.4423   20.1061 H       1  LIG   0.0733   0.1000 
@<TRIPOS>BOND
1     2     1     ar
2     3     2     1
3     4     2     ar
4     5     4     1
5     6     4     ar
6     7     6     ar
7     8     7     1
8     9     8     1
9     10    8     1
10    11    10    1
11    12    11    ar
12    13    12    1
13    14    12    ar
14    15    14    1
15    16    14    ar
16    17    16    1
17    18    16    ar
18    19    11    ar
19    19    18    ar
20    20    19    1
21    21    1     ar
22    21    7     ar
23    21    20    1
24    22    6     1
25    23    22    1
26    24    22    1
27    25    22    1
28    26    10    2
29    27    20    1
30    28    27    1
31    29    27    1
32    30    29    1
33    31    29    1
34    32    27    1
35    32    29    1
36    33    32    1
37    34    32    1
@<TRIPOS>SUBSTRUCTURE
1   LIG    1    
 
########## Name        : 1VRT.lig
########## Description : AM1BCC_CHARGES =  -0.0002 ORIGINAL_CHARGES =  -0.0000

@<TRIPOS>MOLECULE
1VRT.lig
34    37    1     0     0    
SMALL
USER_CHARGES
@<TRIPOS>ATOM
1     N1       4.0540  -36.9310   22.2210 N.ar    1  LIG  -0.6650  -0.6200 
2     C1       4.9660  -36.2380   22.9390 C.ar    1  LIG   0.3947   0.1600 
3     H1       6.0082  -36.2811   22.6707 H       1  LIG   0.0281   0.1500 
4     C2       4.6240  -35.4500   24.0360 C.ar    1  LIG  -0.2334  -0.1500 
5     H2       5.3884  -34.9151   24.5740 H       1  LIG   0.1480   0.1500 
6     C3       3.3050  -35.3690   24.4150 C.ar    1  LIG  -0.0698  -0.1435 
7     C4       2.3460  -36.0770   23.6860 C.ar    1  LIG  -0.0398   0.1170 
8     N2       0.9890  -36.0280   24.1030 N.am    1  LIG  -0.4596  -0.5470 
9     H3       0.7643  -35.9928   25.0860 H       1  LIG   0.3311   0.3700 
10    C5      -0.1450  -36.0180   23.4080 C.2     1  LIG   0.7361   0.5438 
11    C6      -0.1190  -36.0770   21.8860 C.ar    1  LIG  -0.2550   0.0862 
12    C7      -1.1230  -35.3990   21.1890 C.ar    1  LIG  -0.0321  -0.1500 
13    H4      -1.7552  -34.6955   21.7041 H       1  LIG   0.1623   0.1500 
14    C8      -1.2960  -35.6300   19.8690 C.ar    1  LIG  -0.2723  -0.1500 
15    H5      -2.0662  -35.1073   19.3273 H       1  LIG   0.1522   0.1500 
16    C9      -0.4670  -36.5450   19.2400 C.ar    1  LIG   0.4373   0.1600 
17    H6      -0.5947  -36.7554   18.1915 H       1  LIG   0.0280   0.1500 
18    N3       0.5220  -37.2120   19.8740 N.ar    1  LIG  -0.6893  -0.6200 
19    C10      0.7040  -36.9790   21.1800 C.ar    1  LIG   0.6480   0.4100 
20    N4       1.7670  -37.6730   21.8260 N.pl3   1  LIG  -0.6924  -0.3690 
21    C11      2.7540  -36.8570   22.5840 C.ar    1  LIG   0.5805   0.4100 
22    C12      2.9040  -34.5090   25.6010 C.3     1  LIG  -0.0620   0.1435 
23    H7       2.2235  -33.7630   25.2820 H       1  LIG   0.0570   0.0000 
24    H8       2.4436  -35.1154   26.3371 H       1  LIG   0.0495   0.0000 
25    H9       3.7654  -34.0491   26.0108 H       1  LIG   0.0519   0.0000 
26    O1      -1.2400  -35.9060   23.9770 O.2     1  LIG  -0.6361  -0.5700 
27    C13      2.3440  -38.7570   21.0360 C.3     1  LIG   0.1354   0.0690 
28    H10      3.1238  -38.3754   20.4296 H       1  LIG   0.0981   0.1000 
29    C14      2.9380  -39.8900   21.8010 C.3     1  LIG  -0.1181  -0.2000 
30    H11      3.8890  -40.1268   21.3997 H       1  LIG   0.0732   0.1000 
31    H12      3.0430  -39.6129   22.8177 H       1  LIG   0.0789   0.1000 
32    C15      1.6390  -40.0610   21.0880 C.3     1  LIG  -0.1196  -0.2000 
33    H13      0.6832  -39.9283   21.5242 H       1  LIG   0.0807   0.1000 
34    H14      1.5292  -40.4423   20.1061 H       1  LIG   0.0733   0.1000 
@<TRIPOS>BOND
1     2     1     ar
2     3     2     1
3     4     2     ar
4     5     4     1
5     6     4     ar
6     7     6     ar
7     8     7     1
8     9     8     1
9     10    8     1
10    11    10    1
11    12    11    ar
12    13    12    1
13    14    12    ar
14    15    14    1
15    16    14    ar
16    17    16    1
17    18    16    ar
18    19    11    ar
19    19    18    ar
20    20    19    1
21    21    1     ar
22    21    7     ar
23    21    20    1
24    22    6     1
25    23    22    1
26    24    22    1
27    25    22    1
28    26    10    2
29    27    20    1
30    28    27    1
31    29    27    1
32    30    29    1
33    31    29    1
34    32    27    1
35    32    29    1
36    33    32    1
37    34    32    1
@<TRIPOS>SUBSTRUCTURE
1   LIG    1    
 
########## Name        : 1VRT.lig
########## Description : AM1BCC_CHARGES =  -0.0002 ORIGINAL_CHARGES =  -0.0000

@<TRIPOS>MOLECULE
1VRT.lig
34    37    1     0     0    
SMALL
USER_CHARGES
@<TRIPOS>ATOM
1     N1       4.0540  -36.9310   22.2210 N.ar    1  LIG  -0.6650  -0.6200 
2     C1       4.9660  -36.2380   22.9390 C.ar    1  LIG   0.3947   0.1600 
3     H1       6.0082  -36.2811   22.6707 H       1  LIG   0.0281   0.1500 
4     C2       4.6240  -35.4500   24.0360 C.ar    1  LIG  -0.2334  -0.1500 
5     H2       5.3884  -34.9151   24.5740 H       1  LIG   0.1480   0.1500 
6     C3       3.3050  -35.3690   24.4150 C.ar    1  LIG  -0.0698  -0.1435 
7     C4       2.3460  -36.0770   23.6860 C.ar    1  LIG  -0.0398   0.1170 
8     N2       0.9890  -36.0280   24.1030 N.am    1  LIG  -0.4596  -0.5470 
9     H3       0.7643  -35.9928   25.0860 H       1  LIG   0.3311   0.3700 
10    C5      -0.1450  -36.0180   23.4080 C.2     1  LIG   0.7361   0.5438 
11    C6      -0.1190  -36.0770   21.8860 C.ar    1  LIG  -0.2550   0.0862 
12    C7      -1.1230  -35.3990   21.1890 C.ar    1  LIG  -0.0321  -0.1500 
13    H4      -1.7552  -34.6955   21.7041 H       1  LIG   0.1623   0.1500 
14    C8      -1.2960  -35.6300   19.8690 C.ar    1  LIG  -0.2723  -0.1500 
15    H5      -2.0662  -35.1073   19.3273 H       1  LIG   0.1522   0.1500 
16    C9      -0.4670  -36.5450   19.2400 C.ar    1  LIG   0.4373   0.1600 
17    H6      -0.5947  -36.7554   18.1915 H       1  LIG   0.0280   0.1500 
18    N3       0.5220  -37.2120   19.8740 N.ar    1  LIG  -0.6893  -0.6200 
19    C10      0.7040  -36.9790   21.1800 C.ar    1  LIG   0.6480   0.4100 
20    N4       1.7670  -37.6730   21.8260 N.pl3   1  LIG  -0.6924  -0.3690 
21    C11      2.7540  -36.8570   22.5840 C.ar    1  LIG   0.5805   0.4100 
22    C12      2.9040  -34.5090   25.6010 C.3     1  LIG  -0.0620   0.1435 
23    H7       2.2235  -33.7630   25.2820 H       1  LIG   0.0570   0.0000 
24    H8       2.4436  -35.1154   26.3371 H       1  LIG   0.0495   0.0000 
25    H9       3.7654  -34.0491   26.0108 H       1  LIG   0.0519   0.0000 
26    O1      -1.2400  -35.9060   23.9770 O.2     1  LIG  -0.6361  -0.5700 
27    C13      2.3440  -38.7570   21.0360 C.3     1  LIG   0.1354   0.0690 
28    H10      3.1238  -38.3754   20.4296 H       1  LIG   0.0981   0.1000 
29    C14      2.9380  -39.8900   21.8010 C.3     1  LIG  -0.1181  -0.2000 
30    H11      3.8890  -40.1268   21.3997 H       1  LIG   0.0732   0.1000 
31    H12      3.0430  -39.6129   22.8177 H       1  LIG   0.0789   0.1000 
32    C15      1.6390  -40.0610   21.0880 C.3     1  LIG  -0.1196  -0.2000 
33    H13      0.6832  -39.9283   21.5242 H       1  LIG   0.0807   0.1000 
34    H14      1.5292  -40.4423   20.1061 H       1  LIG   0.0733   0.1000 
@<TRIPOS>BOND
1     2     1     ar
2     3     2     1
3     4     2     ar
4     5     4     1
5     6     4     ar
6     7     6     ar
7     8     7     1
8     9     8     1
9     10    8     1
10    11    10    1
11    12    11    ar
12    13    12    1
13    14    12    ar
14    15    14    1
15    16    14    ar
16    17    16    1
17    18    16    ar
18    19    11    ar
19    19    18    ar
20    20    19    1
21    21    1     ar
22    21    7     ar
23    21    20    1
24    22    6     1
25    23    22    1
26    24    22    1
27    25    22    1
28    26    10    2
29    27    20    1
30    28    27    1
31    29    27    1
32    30    29    1
33    31    29    1
34    32    27    1
35    32    29    1
36    33    32    1
37    34    32    1
@<TRIPOS>SUBSTRUCTURE
1   LIG    1    
 
########## Name        : 1VRT.lig
########## Description : AM1BCC_CHARGES =  -0.0002 ORIGINAL_CHARGES =  -0.0000

@<TRIPOS>MOLECULE
1VRT.lig
34    37    1     0     0    
SMALL
USER_CHARGES
@<TRIPOS>ATOM
1     N1       4.0540  -36.9310   22.2210 N.ar    1  LIG  -0.6650  -0.6200 
2     C1       4.9660  -36.2380   22.9390 C.ar    1  LIG   0.3947   0.1600 
3     H1       6.0082  -36.2811   22.6707 H       1  LIG   0.0281   0.1500 
4     C2       4.6240  -35.4500   24.0360 C.ar    1  LIG  -0.2334  -0.1500 
5     H2       5.3884  -34.9151   24.5740 H       1  LIG   0.1480   0.1500 
6     C3       3.3050  -35.3690   24.4150 C.ar    1  LIG  -0.0698  -0.1435 
7     C4       2.3460  -36.0770   23.6860 C.ar    1  LIG  -0.0398   0.1170 
8     N2       0.9890  -36.0280   24.1030 N.am    1  LIG  -0.4596  -0.5470 
9     H3       0.7643  -35.9928   25.0860 H       1  LIG   0.3311   0.3700 
10    C5      -0.1450  -36.0180   23.4080 C.2     1  LIG   0.7361   0.5438 
11    C6      -0.1190  -36.0770   21.8860 C.ar    1  LIG  -0.2550   0.0862 
12    C7      -1.1230  -35.3990   21.1890 C.ar    1  LIG  -0.0321  -0.1500 
13    H4      -1.7552  -34.6955   21.7041 H       1  LIG   0.1623   0.1500 
14    C8      -1.2960  -35.6300   19.8690 C.ar    1  LIG  -0.2723  -0.1500 
15    H5      -2.0662  -35.1073   19.3273 H       1  LIG   0.1522   0.1500 
16    C9      -0.4670  -36.5450   19.2400 C.ar    1  LIG   0.4373   0.1600 
17    H6      -0.5947  -36.7554   18.1915 H       1  LIG   0.0280   0.1500 
18    N3       0.5220  -37.2120   19.8740 N.ar    1  LIG  -0.6893  -0.6200 
19    C10      0.7040  -36.9790   21.1800 C.ar    1  LIG   0.6480   0.4100 
20    N4       1.7670  -37.6730   21.8260 N.pl3   1  LIG  -0.6924  -0.3690 
21    C11      2.7540  -36.8570   22.5840 C.ar    1  LIG   0.5805   0.4100 
22    C12      2.9040  -34.5090   25.6010 C.3     1  LIG  -0.0620   0.1435 
23    H7       2.2235  -33.7630   25.2820 H       1  LIG   0.0570   0.0000 
24    H8       2.4436  -35.1154   26.3371 H       1  LIG   0.0495   0.0000 
25    H9       3.7654  -34.0491   26.0108 H       1  LIG   0.0519   0.0000 
26    O1      -1.2400  -35.9060   23.9770 O.2     1  LIG  -0.6361  -0.5700 
27    C13      2.3440  -38.7570   21.0360 C.3     1  LIG   0.1354   0.0690 
28    H10      3.1238  -38.3754   20.4296 H       1  LIG   0.0981   0.1000 
29    C14      2.9380  -39.8900   21.8010 C.3     1  LIG  -0.1181  -0.2000 
30    H11      3.8890  -40.1268   21.3997 H       1  LIG   0.0732   0.1000 
31    H12      3.0430  -39.6129   22.8177 H       1  LIG   0.0789   0.1000 
32    C15      1.6390  -40.0610   21.0880 C.3     1  LIG  -0.1196  -0.2000 
33    H13      0.6832  -39.9283   21.5242 H       1  LIG   0.0807   0.1000 
34    H14      1.5292  -40.4423   20.1061 H       1  LIG   0.0733   0.1000 
@<TRIPOS>BOND
1     2     1     ar
2     3     2     1
3     4     2     ar
4     5     4     1
5     6     4     ar
6     7     6     ar
7     8     7     1
8     9     8     1
9     10    8     1
10    11    10    1
11    12    11    ar
12    13    12    1
13    14    12    ar
14    15    14    1
15    16    14    ar
16    17    16    1
17    18    16    ar
18    19    11    ar
19    19    18    ar
20    20    19    1
21    21    1     ar
22    21    7     ar
23    21    20    1
24    22    6     1
25    23    22    1
26    24    22    1
27    25    22    1
28    26    10    2
29    27    20    1
30    28    27    1
31    29    27    1
32    30    29    1
33    31    29    1
34    32    27    1
35    32    29    1
36    33    32    1
37    34    32    1
@<TRIPOS>SUBSTRUCTURE
1   LIG    1    
 
########## Name        : 1VRT.lig
########## Description : AM1BCC_CHARGES =  -0.0002 ORIGINAL_CHARGES =  -0.0000

@<TRIPOS>MOLECULE
1VRT.lig
34    37    1     0     0    
SMALL
USER_CHARGES
@<TRIPOS>ATOM
1     N1       4.0540  -36.9310   22.2210 N.ar    1  LIG  -0.6650  -0.6200 
2     C1       4.9660  -36.2380   22.9390 C.ar    1  LIG   0.3947   0.1600 
3     H1       6.0082  -36.2811   22.6707 H       1  LIG   0.0281   0.1500 
4     C2       4.6240  -35.4500   24.0360 C.ar    1  LIG  -0.2334  -0.1500 
5     H2       5.3884  -34.9151   24.5740 H       1  LIG   0.1480   0.1500 
6     C3       3.3050  -35.3690   24.4150 C.ar    1  LIG  -0.0698  -0.1435 
7     C4       2.3460  -36.0770   23.6860 C.ar    1  LIG  -0.0398   0.1170 
8     N2       0.9890  -36.0280   24.1030 N.am    1  LIG  -0.4596  -0.5470 
9     H3       0.7643  -35.9928   25.0860 H       1  LIG   0.3311   0.3700 
10    C5      -0.1450  -36.0180   23.4080 C.2     1  LIG   0.7361   0.5438 
11    C6      -0.1190  -36.0770   21.8860 C.ar    1  LIG  -0.2550   0.0862 
12    C7      -1.1230  -35.3990   21.1890 C.ar    1  LIG  -0.0321  -0.1500 
13    H4      -1.7552  -34.6955   21.7041 H       1  LIG   0.1623   0.1500 
14    C8      -1.2960  -35.6300   19.8690 C.ar    1  LIG  -0.2723  -0.1500 
15    H5      -2.0662  -35.1073   19.3273 H       1  LIG   0.1522   0.1500 
16    C9      -0.4670  -36.5450   19.2400 C.ar    1  LIG   0.4373   0.1600 
17    H6      -0.5947  -36.7554   18.1915 H       1  LIG   0.0280   0.1500 
18    N3       0.5220  -37.2120   19.8740 N.ar    1  LIG  -0.6893  -0.6200 
19    C10      0.7040  -36.9790   21.1800 C.ar    1  LIG   0.6480   0.4100 
20    N4       1.7670  -37.6730   21.8260 N.pl3   1  LIG  -0.6924  -0.3690 
21    C11      2.7540  -36.8570   22.5840 C.ar    1  LIG   0.5805   0.4100 
22    C12      2.9040  -34.5090   25.6010 C.3     1  LIG  -0.0620   0.1435 
23    H7       2.2235  -33.7630   25.2820 H       1  LIG   0.0570   0.0000 
24    H8       2.4436  -35.1154   26.3371 H       1  LIG   0.0495   0.0000 
25    H9       3.7654  -34.0491   26.0108 H       1  LIG   0.0519   0.0000 
26    O1      -1.2400  -35.9060   23.9770 O.2     1  LIG  -0.6361  -0.5700 
27    C13      2.3440  -38.7570   21.0360 C.3     1  LIG   0.1354   0.0690 
28    H10      3.1238  -38.3754   20.4296 H       1  LIG   0.0981   0.1000 
29    C14      2.9380  -39.8900   21.8010 C.3     1  LIG  -0.1181  -0.2000 
30    H11      3.8890  -40.1268   21.3997 H       1  LIG   0.0732   0.1000 
31    H12      3.0430  -39.6129   22.8177 H       1  LIG   0.0789   0.1000 
32    C15      1.6390  -40.0610   21.0880 C.3     1  LIG  -0.1196  -0.2000 
33    H13      0.6832  -39.9283   21.5242 H       1  LIG   0.0807   0.1000 
34    H14      1.5292  -40.4423   20.1061 H       1  LIG   0.0733   0.1000 
@<TRIPOS>BOND
1     2     1     ar
2     3     2     1
3     4     2     ar
4     5     4     1
5     6     4     ar
6     7     6     ar
7     8     7     1
8     9     8     1
9     10    8     1
10    11    10    1
11    12    11    ar
12    13    12    1
13    14    12    ar
14    15    14    1
15    16    14    ar
16    17    16    1
17    18    16    ar
18    19    11    ar
19    19    18    ar
20    20    19    1
21    21    1     ar
22    21    7     ar
23    21    20    1
24    22    6     1
25    23    22    1
26    24    22    1
27    25    22    1
28    26    10    2
29    27    20    1
30    28    27    1
31    29    27    1
32    30    29    1
33    31    29    1
34    32    27    1
35    32    29    1
36    33    32    1
37    34    32    1
@<TRIPOS>SUBSTRUCTURE
1   LIG    1    
 
########## Name        : 1VRT.lig
########## Description : AM1BCC_CHARGES =  -0.0002 ORIGINAL_CHARGES =  -0.0000

@<TRIPOS>MOLECULE
1VRT.lig
34    37    1     0     0    
SMALL
USER_CHARGES
@<TRIPOS>ATOM
1     N1       4.0540  -36.9310   22.2210 N.ar    1  LIG  -0.6650  -0.6200 
2     C1       4.9660  -36.2380   22.9390 C.ar    1  LIG   0.3947   0.1600 
3     H1       6.0082  -36.2811   22.6707 H       1  LIG   0.0281   0.1500 
4     C2       4.6240  -35.4500   24.0360 C.ar    1  LIG  -0.2334  -0.1500 
5     H2       5.3884  -34.9151   24.5740 H       1  LIG   0.1480   0.1500 
6     C3       3.3050  -35.3690   24.4150 C.ar    1  LIG  -0.0698  -0.1435 
7     C4       2.3460  -36.0770   23.6860 C.ar    1  LIG  -0.0398   0.1170 
8     N2       0.9890  -36.0280   24.1030 N.am    1  LIG  -0.4596  -0.5470 
9     H3       0.7643  -35.9928   25.0860 H       1  LIG   0.3311   0.3700 
10    C5      -0.1450  -36.0180   23.4080 C.2     1  LIG   0.7361   0.5438 
11    C6      -0.1190  -36.0770   21.8860 C.ar    1  LIG  -0.2550   0.0862 
12    C7      -1.1230  -35.3990   21.1890 C.ar    1  LIG  -0.0321  -0.1500 
13    H4      -1.7552  -34.6955   21.7041 H       1  LIG   0.1623   0.1500 
14    C8      -1.2960  -35.6300   19.8690 C.ar    1  LIG  -0.2723  -0.1500 
15    H5      -2.0662  -35.1073   19.3273 H       1  LIG   0.1522   0.1500 
16    C9      -0.4670  -36.5450   19.2400 C.ar    1  LIG   0.4373   0.1600 
17    H6      -0.5947  -36.7554   18.1915 H       1  LIG   0.0280   0.1500 
18    N3       0.5220  -37.2120   19.8740 N.ar    1  LIG  -0.6893  -0.6200 
19    C10      0.7040  -36.9790   21.1800 C.ar    1  LIG   0.6480   0.4100 
20    N4       1.7670  -37.6730   21.8260 N.pl3   1  LIG  -0.6924  -0.3690 
21    C11      2.7540  -36.8570   22.5840 C.ar    1  LIG   0.5805   0.4100 
22    C12      2.9040  -34.5090   25.6010 C.3     1  LIG  -0.0620   0.1435 
23    H7       2.2235  -33.7630   25.2820 H       1  LIG   0.0570   0.0000 
24    H8       2.4436  -35.1154   26.3371 H       1  LIG   0.0495   0.0000 
25    H9       3.7654  -34.0491   26.0108 H       1  LIG   0.0519   0.0000 
26    O1      -1.2400  -35.9060   23.9770 O.2     1  LIG  -0.6361  -0.5700 
27    C13      2.3440  -38.7570   21.0360 C.3     1  LIG   0.1354   0.0690 
28    H10      3.1238  -38.3754   20.4296 H       1  LIG   0.0981   0.1000 
29    C14      2.9380  -39.8900   21.8010 C.3     1  LIG  -0.1181  -0.2000 
30    H11      3.8890  -40.1268   21.3997 H       1  LIG   0.0732   0.1000 
31    H12      3.0430  -39.6129   22.8177 H       1  LIG   0.0789   0.1000 
32    C15      1.6390  -40.0610   21.0880 C.3     1  LIG  -0.1196  -0.2000 
33    H13      0.6832  -39.9283   21.5242 H       1  LIG   0.0807   0.1000 
34    H14      1.5292  -40.4423   20.1061 H       1  LIG   0.0733   0.1000 
@<TRIPOS>BOND
1     2     1     ar
2     3     2     1
3     4     2     ar
4     5     4     1
5     6     4     ar
6     7     6     ar
7     8     7     1
8     9     8     1
9     10    8     1
10    11    10    1
11    12    11    ar
12    13    12    1
13    14    12    ar
14    15    14    1
15    16    14    ar
16    17    16    1
17    18    16    ar
18    19    11    ar
19    19    18    ar
20    20    19    1
21    21    1     ar
22    21    7     ar
23    21    20    1
24    22    6     1
25    23    22    1
26    24    22    1
27    25    22    1
28    26    10    2
29    27    20    1
30    28    27    1
31    29    27    1
32    30    29    1
33    31    29    1
34    32    27    1
35    32    29    1
36    33    32    1
37    34    32    1
@<TRIPOS>SUBSTRUCTURE
1   LIG    1    
 
########## Name        : 1VRT.lig
########## Description : AM1BCC_CHARGES =  -0.0002 ORIGINAL_CHARGES =  -0.0000

@<TRIPOS>MOLECULE
1VRT.lig
34    37    1     0     0    
SMALL
USER_CHARGES
@<TRIPOS>ATOM
1     N1       4.0540  -36.9310   22.2210 N.ar    1  LIG  -0.6650  -0.6200 
2     C1       4.9660  -36.2380   22.9390 C.ar    1  LIG   0.3947   0.1600 
3     H1       6.0082  -36.2811   22.6707 H       1  LIG   0.0281   0.1500 
4     C2       4.6240  -35.4500   24.0360 C.ar    1  LIG  -0.2334  -0.1500 
5     H2       5.3884  -34.9151   24.5740 H       1  LIG   0.1480   0.1500 
6     C3       3.3050  -35.3690   24.4150 C.ar    1  LIG  -0.0698  -0.1435 
7     C4       2.3460  -36.0770   23.6860 C.ar    1  LIG  -0.0398   0.1170 
8     N2       0.9890  -36.0280   24.1030 N.am    1  LIG  -0.4596  -0.5470 
9     H3       0.7643  -35.9928   25.0860 H       1  LIG   0.3311   0.3700 
10    C5      -0.1450  -36.0180   23.4080 C.2     1  LIG   0.7361   0.5438 
11    C6      -0.1190  -36.0770   21.8860 C.ar    1  LIG  -0.2550   0.0862 
12    C7      -1.1230  -35.3990   21.1890 C.ar    1  LIG  -0.0321  -0.1500 
13    H4      -1.7552  -34.6955   21.7041 H       1  LIG   0.1623   0.1500 
14    C8      -1.2960  -35.6300   19.8690 C.ar    1  LIG  -0.2723  -0.1500 
15    H5      -2.0662  -35.1073   19.3273 H       1  LIG   0.1522   0.1500 
16    C9      -0.4670  -36.5450   19.2400 C.ar    1  LIG   0.4373   0.1600 
17    H6      -0.5947  -36.7554   18.1915 H       1  LIG   0.0280   0.1500 
18    N3       0.5220  -37.2120   19.8740 N.ar    1  LIG  -0.6893  -0.6200 
19    C10      0.7040  -36.9790   21.1800 C.ar    1  LIG   0.6480   0.4100 
20    N4       1.7670  -37.6730   21.8260 N.pl3   1  LIG  -0.6924  -0.3690 
21    C11      2.7540  -36.8570   22.5840 C.ar    1  LIG   0.5805   0.4100 
22    C12      2.9040  -34.5090   25.6010 C.3     1  LIG  -0.0620   0.1435 
23    H7       2.2235  -33.7630   25.2820 H       1  LIG   0.0570   0.0000 
24    H8       2.4436  -35.1154   26.3371 H       1  LIG   0.0495   0.0000 
25    H9       3.7654  -34.0491   26.0108 H       1  LIG   0.0519   0.0000 
26    O1      -1.2400  -35.9060   23.9770 O.2     1  LIG  -0.6361  -0.5700 
27    C13      2.3440  -38.7570   21.0360 C.3     1  LIG   0.1354   0.0690 
28    H10      3.1238  -38.3754   20.4296 H       1  LIG   0.0981   0.1000 
29    C14      2.9380  -39.8900   21.8010 C.3     1  LIG  -0.1181  -0.2000 
30    H11      3.8890  -40.1268   21.3997 H       1  LIG   0.0732   0.1000 
31    H12      3.0430  -39.6129   22.8177 H       1  LIG   0.0789   0.1000 
32    C15      1.6390  -40.0610   21.0880 C.3     1  LIG  -0.1196  -0.2000 
33    H13      0.6832  -39.9283   21.5242 H       1  LIG   0.0807   0.1000 
34    H14      1.5292  -40.4423   20.1061 H       1  LIG   0.0733   0.1000 
@<TRIPOS>BOND
1     2     1     ar
2     3     2     1
3     4     2     ar
4     5     4     1
5     6     4     ar
6     7     6     ar
7     8     7     1
8     9     8     1
9     10    8     1
10    11    10    1
11    12    11    ar
12    13    12    1
13    14    12    ar
14    15    14    1
15    16    14    ar
16    17    16    1
17    18    16    ar
18    19    11    ar
19    19    18    ar
20    20    19    1
21    21    1     ar
22    21    7     ar
23    21    20    1
24    22    6     1
25    23    22    1
26    24    22    1
27    25    22    1
28    26    10    2
29    27    20    1
30    28    27    1
31    29    27    1
32    30    29    1
33    31    29    1
34    32    27    1
35    32    29    1
36    33    32    1
37    34    32    1
@<TRIPOS>SUBSTRUCTURE
1   LIG    1    
 
########## Name        : 1VRT.lig
########## Description : AM1BCC_CHARGES =  -0.0002 ORIGINAL_CHARGES =  -0.0000

@<TRIPOS>MOLECULE
1VRT.lig
34    37    1     0     0    
SMALL
USER_CHARGES
@<TRIPOS>ATOM
1     N1       4.0540  -36.9310   22.2210 N.ar    1  LIG  -0.6650  -0.6200 
2     C1       4.9660  -36.2380   22.9390 C.ar    1  LIG   0.3947   0.1600 
3     H1       6.0082  -36.2811   22.6707 H       1  LIG   0.0281   0.1500 
4     C2       4.6240  -35.4500   24.0360 C.ar    1  LIG  -0.2334  -0.1500 
5     H2       5.3884  -34.9151   24.5740 H       1  LIG   0.1480   0.1500 
6     C3       3.3050  -35.3690   24.4150 C.ar    1  LIG  -0.0698  -0.1435 
7     C4       2.3460  -36.0770   23.6860 C.ar    1  LIG  -0.0398   0.1170 
8     N2       0.9890  -36.0280   24.1030 N.am    1  LIG  -0.4596  -0.5470 
9     H3       0.7643  -35.9928   25.0860 H       1  LIG   0.3311   0.3700 
10    C5      -0.1450  -36.0180   23.4080 C.2     1  LIG   0.7361   0.5438 
11    C6      -0.1190  -36.0770   21.8860 C.ar    1  LIG  -0.2550   0.0862 
12    C7      -1.1230  -35.3990   21.1890 C.ar    1  LIG  -0.0321  -0.1500 
13    H4      -1.7552  -34.6955   21.7041 H       1  LIG   0.1623   0.1500 
14    C8      -1.2960  -35.6300   19.8690 C.ar    1  LIG  -0.2723  -0.1500 
15    H5      -2.0662  -35.1073   19.3273 H       1  LIG   0.1522   0.1500 
16    C9      -0.4670  -36.5450   19.2400 C.ar    1  LIG   0.4373   0.1600 
17    H6      -0.5947  -36.7554   18.1915 H       1  LIG   0.0280   0.1500 
18    N3       0.5220  -37.2120   19.8740 N.ar    1  LIG  -0.6893  -0.6200 
19    C10      0.7040  -36.9790   21.1800 C.ar    1  LIG   0.6480   0.4100 
20    N4       1.7670  -37.6730   21.8260 N.pl3   1  LIG  -0.6924  -0.3690 
21    C11      2.7540  -36.8570   22.5840 C.ar    1  LIG   0.5805   0.4100 
22    C12      2.9040  -34.5090   25.6010 C.3     1  LIG  -0.0620   0.1435 
23    H7       2.2235  -33.7630   25.2820 H       1  LIG   0.0570   0.0000 
24    H8       2.4436  -35.1154   26.3371 H       1  LIG   0.0495   0.0000 
25    H9       3.7654  -34.0491   26.0108 H       1  LIG   0.0519   0.0000 
26    O1      -1.2400  -35.9060   23.9770 O.2     1  LIG  -0.6361  -0.5700 
27    C13      2.3440  -38.7570   21.0360 C.3     1  LIG   0.1354   0.0690 
28    H10      3.1238  -38.3754   20.4296 H       1  LIG   0.0981   0.1000 
29    C14      2.9380  -39.8900   21.8010 C.3     1  LIG  -0.1181  -0.2000 
30    H11      3.8890  -40.1268   21.3997 H       1  LIG   0.0732   0.1000 
31    H12      3.0430  -39.6129   22.8177 H       1  LIG   0.0789   0.1000 
32    C15      1.6390  -40.0610   21.0880 C.3     1  LIG  -0.1196  -0.2000 
33    H13      0.6832  -39.9283   21.5242 H       1  LIG   0.0807   0.1000 
34    H14      1.5292  -40.4423   20.1061 H       1  LIG   0.0733   0.1000 
@<TRIPOS>BOND
1     2     1     ar
2     3     2     1
3     4     2     ar
4     5     4     1
5     6     4     ar
6     7     6     ar
7     8     7     1
8     9     8     1
9     10    8     1
10    11    10    1
11    12    11    ar
12    13    12    1
13    14    12    ar
14    15    14    1
15    16    14    ar
16    17    16    1
17    18    16    ar
18    19    11    ar
19    19    18    ar
20    20    19    1
21    21    1     ar
22    21    7     ar
23    21    20    1
24    22    6     1
25    23    22    1
26    24    22    1
27    25    22    1
28    26    10    2
29    27    20    1
30    28    27    1
31    29    27    1
32    30    29    1
33    31    29    1
34    32    27    1
35    32    29    1
36    33    32    1
37    34    32    1
@<TRIPOS>SUBSTRUCTURE
1   LIG    1    
 
########## Name        : 1VRT.lig
########## Description : AM1BCC_CHARGES =  -0.0002 ORIGINAL_CHARGES =  -0.0000

@<TRIPOS>MOLECULE
1VRT.lig
34    37    1     0     0    
SMALL
USER_CHARGES
@<TRIPOS>ATOM
1     N1       4.0540  -36.9310   22.2210 N.ar    1  LIG  -0.6650  -0.6200 
2     C1       4.9660  -36.2380   22.9390 C.ar    1  LIG   0.3947   0.1600 
3     H1       6.0082  -36.2811   22.6707 H       1  LIG   0.0281   0.1500 
4     C2       4.6240  -35.4500   24.0360 C.ar    1  LIG  -0.2334  -0.1500 
5     H2       5.3884  -34.9151   24.5740 H       1  LIG   0.1480   0.1500 
6     C3       3.3050  -35.3690   24.4150 C.ar    1  LIG  -0.0698  -0.1435 
7     C4       2.3460  -36.0770   23.6860 C.ar    1  LIG  -0.0398   0.1170 
8     N2       0.9890  -36.0280   24.1030 N.am    1  LIG  -0.4596  -0.5470 
9     H3       0.7643  -35.9928   25.0860 H       1  LIG   0.3311   0.3700 
10    C5      -0.1450  -36.0180   23.4080 C.2     1  LIG   0.7361   0.5438 
11    C6      -0.1190  -36.0770   21.8860 C.ar    1  LIG  -0.2550   0.0862 
12    C7      -1.1230  -35.3990   21.1890 C.ar    1  LIG  -0.0321  -0.1500 
13    H4      -1.7552  -34.6955   21.7041 H       1  LIG   0.1623   0.1500 
14    C8      -1.2960  -35.6300   19.8690 C.ar    1  LIG  -0.2723  -0.1500 
15    H5      -2.0662  -35.1073   19.3273 H       1  LIG   0.1522   0.1500 
16    C9      -0.4670  -36.5450   19.2400 C.ar    1  LIG   0.4373   0.1600 
17    H6      -0.5947  -36.7554   18.1915 H       1  LIG   0.0280   0.1500 
18    N3       0.5220  -37.2120   19.8740 N.ar    1  LIG  -0.6893  -0.6200 
19    C10      0.7040  -36.9790   21.1800 C.ar    1  LIG   0.6480   0.4100 
20    N4       1.7670  -37.6730   21.8260 N.pl3   1  LIG  -0.6924  -0.3690 
21    C11      2.7540  -36.8570   22.5840 C.ar    1  LIG   0.5805   0.4100 
22    C12      2.9040  -34.5090   25.6010 C.3     1  LIG  -0.0620   0.1435 
23    H7       2.2235  -33.7630   25.2820 H       1  LIG   0.0570   0.0000 
24    H8       2.4436  -35.1154   26.3371 H       1  LIG   0.0495   0.0000 
25    H9       3.7654  -34.0491   26.0108 H       1  LIG   0.0519   0.0000 
26    O1      -1.2400  -35.9060   23.9770 O.2     1  LIG  -0.6361  -0.5700 
27    C13      2.3440  -38.7570   21.0360 C.3     1  LIG   0.1354   0.0690 
28    H10      3.1238  -38.3754   20.4296 H       1  LIG   0.0981   0.1000 
29    C14      2.9380  -39.8900   21.8010 C.3     1  LIG  -0.1181  -0.2000 
30    H11      3.8890  -40.1268   21.3997 H       1  LIG   0.0732   0.1000 
31    H12      3.0430  -39.6129   22.8177 H       1  LIG   0.0789   0.1000 
32    C15      1.6390  -40.0610   21.0880 C.3     1  LIG  -0.1196  -0.2000 
33    H13      0.6832  -39.9283   21.5242 H       1  LIG   0.0807   0.1000 
34    H14      1.5292  -40.4423   20.1061 H       1  LIG   0.0733   0.1000 
@<TRIPOS>BOND
1     2     1     ar
2     3     2     1
3     4     2     ar
4     5     4     1
5     6     4     ar
6     7     6     ar
7     8     7     1
8     9     8     1
9     10    8     1
10    11    10    1
11    12    11    ar
12    13    12    1
13    14    12    ar
14    15    14    1
15    16    14    ar
16    17    16    1
17    18    16    ar
18    19    11    ar
19    19    18    ar
20    20    19    1
21    21    1     ar
22    21    7     ar
23    21    20    1
24    22    6     1
25    23    22    1
26    24    22    1
27    25    22    1
28    26    10    2
29    27    20    1
30    28    27    1
31    29    27    1
32    30    29    1
33    31    29    1
34    32    27    1
35    32    29    1
36    33    32    1
37    34    32    1
@<TRIPOS>SUBSTRUCTURE
1   LIG    1    
 
########## Name        : 1VRT.lig
########## Description : AM1BCC_CHARGES =  -0.0002 ORIGINAL_CHARGES =  -0.0000

@<TRIPOS>MOLECULE
1VRT.lig
34    37    1     0     0    
SMALL
USER_CHARGES
@<TRIPOS>ATOM
1     N1       4.0540  -36.9310   22.2210 N.ar    1  LIG  -0.6650  -0.6200 
2     C1       4.9660  -36.2380   22.9390 C.ar    1  LIG   0.3947   0.1600 
3     H1       6.0082  -36.2811   22.6707 H       1  LIG   0.0281   0.1500 
4     C2       4.6240  -35.4500   24.0360 C.ar    1  LIG  -0.2334  -0.1500 
5     H2       5.3884  -34.9151   24.5740 H       1  LIG   0.1480   0.1500 
6     C3       3.3050  -35.3690   24.4150 C.ar    1  LIG  -0.0698  -0.1435 
7     C4       2.3460  -36.0770   23.6860 C.ar    1  LIG  -0.0398   0.1170 
8     N2       0.9890  -36.0280   24.1030 N.am    1  LIG  -0.4596  -0.5470 
9     H3       0.7643  -35.9928   25.0860 H       1  LIG   0.3311   0.3700 
10    C5      -0.1450  -36.0180   23.4080 C.2     1  LIG   0.7361   0.5438 
11    C6      -0.1190  -36.0770   21.8860 C.ar    1  LIG  -0.2550   0.0862 
12    C7      -1.1230  -35.3990   21.1890 C.ar    1  LIG  -0.0321  -0.1500 
13    H4      -1.7552  -34.6955   21.7041 H       1  LIG   0.1623   0.1500 
14    C8      -1.2960  -35.6300   19.8690 C.ar    1  LIG  -0.2723  -0.1500 
15    H5      -2.0662  -35.1073   19.3273 H       1  LIG   0.1522   0.1500 
16    C9      -0.4670  -36.5450   19.2400 C.ar    1  LIG   0.4373   0.1600 
17    H6      -0.5947  -36.7554   18.1915 H       1  LIG   0.0280   0.1500 
18    N3       0.5220  -37.2120   19.8740 N.ar    1  LIG  -0.6893  -0.6200 
19    C10      0.7040  -36.9790   21.1800 C.ar    1  LIG   0.6480   0.4100 
20    N4       1.7670  -37.6730   21.8260 N.pl3   1  LIG  -0.6924  -0.3690 
21    C11      2.7540  -36.8570   22.5840 C.ar    1  LIG   0.5805   0.4100 
22    C12      2.9040  -34.5090   25.6010 C.3     1  LIG  -0.0620   0.1435 
23    H7       2.2235  -33.7630   25.2820 H       1  LIG   0.0570   0.0000 
24    H8       2.4436  -35.1154   26.3371 H       1  LIG   0.0495   0.0000 
25    H9       3.7654  -34.0491   26.0108 H       1  LIG   0.0519   0.0000 
26    O1      -1.2400  -35.9060   23.9770 O.2     1  LIG  -0.6361  -0.5700 
27    C13      2.3440  -38.7570   21.0360 C.3     1  LIG   0.1354   0.0690 
28    H10      3.1238  -38.3754   20.4296 H       1  LIG   0.0981   0.1000 
29    C14      2.9380  -39.8900   21.8010 C.3     1  LIG  -0.1181  -0.2000 
30    H11      3.8890  -40.1268   21.3997 H       1  LIG   0.0732   0.1000 
31    H12      3.0430  -39.6129   22.8177 H       1  LIG   0.0789   0.1000 
32    C15      1.6390  -40.0610   21.0880 C.3     1  LIG  -0.1196  -0.2000 
33    H13      0.6832  -39.9283   21.5242 H       1  LIG   0.0807   0.1000 
34    H14      1.5292  -40.4423   20.1061 H       1  LIG   0.0733   0.1000 
@<TRIPOS>BOND
1     2     1     ar
2     3     2     1
3     4     2     ar
4     5     4     1
5     6     4     ar
6     7     6     ar
7     8     7     1
8     9     8     1
9     10    8     1
10    11    10    1
11    12    11    ar
12    13    12    1
13    14    12    ar
14    15    14    1
15    16    14    ar
16    17    16    1
17    18    16    ar
18    19    11    ar
19    19    18    ar
20    20    19    1
21    21    1     ar
22    21    7     ar
23    21    20    1
24    22    6     1
25    23    22    1
26    24    22    1
27    25    22    1
28    26    10    2
29    27    20    1
30    28    27    1
31    29    27    1
32    30    29    1
33    31    29    1
34    32    27    1
35    32    29    1
36    33    32    1
37    34    32    1
@<TRIPOS>SUBSTRUCTURE
1   LIG    1    
 
########## Name        : 1VRT.lig
########## Description : AM1BCC_CHARGES =  -0.0002 ORIGINAL_CHARGES =  -0.0000

@<TRIPOS>MOLECULE
1VRT.lig
34    37    1     0     0    
SMALL
USER_CHARGES
@<TRIPOS>ATOM
1     N1       4.0540  -36.9310   22.2210 N.ar    1  LIG  -0.6650  -0.6200 
2     C1       4.9660  -36.2380   22.9390 C.ar    1  LIG   0.3947   0.1600 
3     H1       6.0082  -36.2811   22.6707 H       1  LIG   0.0281   0.1500 
4     C2       4.6240  -35.4500   24.0360 C.ar    1  LIG  -0.2334  -0.1500 
5     H2       5.3884  -34.9151   24.5740 H       1  LIG   0.1480   0.1500 
6     C3       3.3050  -35.3690   24.4150 C.ar    1  LIG  -0.0698  -0.1435 
7     C4       2.3460  -36.0770   23.6860 C.ar    1  LIG  -0.0398   0.1170 
8     N2       0.9890  -36.0280   24.1030 N.am    1  LIG  -0.4596  -0.5470 
9     H3       0.7643  -35.9928   25.0860 H       1  LIG   0.3311   0.3700 
10    C5      -0.1450  -36.0180   23.4080 C.2     1  LIG   0.7361   0.5438 
11    C6      -0.1190  -36.0770   21.8860 C.ar    1  LIG  -0.2550   0.0862 
12    C7      -1.1230  -35.3990   21.1890 C.ar    1  LIG  -0.0321  -0.1500 
13    H4      -1.7552  -34.6955   21.7041 H       1  LIG   0.1623   0.1500 
14    C8      -1.2960  -35.6300   19.8690 C.ar    1  LIG  -0.2723  -0.1500 
15    H5      -2.0662  -35.1073   19.3273 H       1  LIG   0.1522   0.1500 
16    C9      -0.4670  -36.5450   19.2400 C.ar    1  LIG   0.4373   0.1600 
17    H6      -0.5947  -36.7554   18.1915 H       1  LIG   0.0280   0.1500 
18    N3       0.5220  -37.2120   19.8740 N.ar    1  LIG  -0.6893  -0.6200 
19    C10      0.7040  -36.9790   21.1800 C.ar    1  LIG   0.6480   0.4100 
20    N4       1.7670  -37.6730   21.8260 N.pl3   1  LIG  -0.6924  -0.3690 
21    C11      2.7540  -36.8570   22.5840 C.ar    1  LIG   0.5805   0.4100 
22    C12      2.9040  -34.5090   25.6010 C.3     1  LIG  -0.0620   0.1435 
23    H7       2.2235  -33.7630   25.2820 H       1  LIG   0.0570   0.0000 
24    H8       2.4436  -35.1154   26.3371 H       1  LIG   0.0495   0.0000 
25    H9       3.7654  -34.0491   26.0108 H       1  LIG   0.0519   0.0000 
26    O1      -1.2400  -35.9060   23.9770 O.2     1  LIG  -0.6361  -0.5700 
27    C13      2.3440  -38.7570   21.0360 C.3     1  LIG   0.1354   0.0690 
28    H10      3.1238  -38.3754   20.4296 H       1  LIG   0.0981   0.1000 
29    C14      2.9380  -39.8900   21.8010 C.3     1  LIG  -0.1181  -0.2000 
30    H11      3.8890  -40.1268   21.3997 H       1  LIG   0.0732   0.1000 
31    H12      3.0430  -39.6129   22.8177 H       1  LIG   0.0789   0.1000 
32    C15      1.6390  -40.0610   21.0880 C.3     1  LIG  -0.1196  -0.2000 
33    H13      0.6832  -39.9283   21.5242 H       1  LIG   0.0807   0.1000 
34    H14      1.5292  -40.4423   20.1061 H       1  LIG   0.0733   0.1000 
@<TRIPOS>BOND
1     2     1     ar
2     3     2     1
3     4     2     ar
4     5     4     1
5     6     4     ar
6     7     6     ar
7     8     7     1
8     9     8     1
9     10    8     1
10    11    10    1
11    12    11    ar
12    13    12    1
13    14    12    ar
14    15    14    1
15    16    14    ar
16    17    16    1
17    18    16    ar
18    19    11    ar
19    19    18    ar
20    20    19    1
21    21    1     ar
22    21    7     ar
23    21    20    1
24    22    6     1
25    23    22    1
26    24    22    1
27    25    22    1
28    26    10    2
29    27    20    1
30    28    27    1
31    29    27    1
32    30    29    1
33    31    29    1
34    32    27    1
35    32    29    1
36    33    32    1
37    34    32    1
@<TRIPOS>SUBSTRUCTURE
1   LIG    1    
 
########## Name        : 1VRT.lig
########## Description : AM1BCC_CHARGES =  -0.0002 ORIGINAL_CHARGES =  -0.0000

@<TRIPOS>MOLECULE
1VRT.lig
34    37    1     0     0    
SMALL
USER_CHARGES
@<TRIPOS>ATOM
1     N1       4.0540  -36.9310   22.2210 N.ar    1  LIG  -0.6650  -0.6200 
2     C1       4.9660  -36.2380   22.9390 C.ar    1  LIG   0.3947   0.1600 
3     H1       6.0082  -36.2811   22.6707 H       1  LIG   0.0281   0.1500 
4     C2       4.6240  -35.4500   24.0360 C.ar    1  LIG  -0.2334  -0.1500 
5     H2       5.3884  -34.9151   24.5740 H       1  LIG   0.1480   0.1500 
6     C3       3.3050  -35.3690   24.4150 C.ar    1  LIG  -0.0698  -0.1435 
7     C4       2.3460  -36.0770   23.6860 C.ar    1  LIG  -0.0398   0.1170 
8     N2       0.9890  -36.0280   24.1030 N.am    1  LIG  -0.4596  -0.5470 
9     H3       0.7643  -35.9928   25.0860 H       1  LIG   0.3311   0.3700 
10    C5      -0.1450  -36.0180   23.4080 C.2     1  LIG   0.7361   0.5438 
11    C6      -0.1190  -36.0770   21.8860 C.ar    1  LIG  -0.2550   0.0862 
12    C7      -1.1230  -35.3990   21.1890 C.ar    1  LIG  -0.0321  -0.1500 
13    H4      -1.7552  -34.6955   21.7041 H       1  LIG   0.1623   0.1500 
14    C8      -1.2960  -35.6300   19.8690 C.ar    1  LIG  -0.2723  -0.1500 
15    H5      -2.0662  -35.1073   19.3273 H       1  LIG   0.1522   0.1500 
16    C9      -0.4670  -36.5450   19.2400 C.ar    1  LIG   0.4373   0.1600 
17    H6      -0.5947  -36.7554   18.1915 H       1  LIG   0.0280   0.1500 
18    N3       0.5220  -37.2120   19.8740 N.ar    1  LIG  -0.6893  -0.6200 
19    C10      0.7040  -36.9790   21.1800 C.ar    1  LIG   0.6480   0.4100 
20    N4       1.7670  -37.6730   21.8260 N.pl3   1  LIG  -0.6924  -0.3690 
21    C11      2.7540  -36.8570   22.5840 C.ar    1  LIG   0.5805   0.4100 
22    C12      2.9040  -34.5090   25.6010 C.3     1  LIG  -0.0620   0.1435 
23    H7       2.2235  -33.7630   25.2820 H       1  LIG   0.0570   0.0000 
24    H8       2.4436  -35.1154   26.3371 H       1  LIG   0.0495   0.0000 
25    H9       3.7654  -34.0491   26.0108 H       1  LIG   0.0519   0.0000 
26    O1      -1.2400  -35.9060   23.9770 O.2     1  LIG  -0.6361  -0.5700 
27    C13      2.3440  -38.7570   21.0360 C.3     1  LIG   0.1354   0.0690 
28    H10      3.1238  -38.3754   20.4296 H       1  LIG   0.0981   0.1000 
29    C14      2.9380  -39.8900   21.8010 C.3     1  LIG  -0.1181  -0.2000 
30    H11      3.8890  -40.1268   21.3997 H       1  LIG   0.0732   0.1000 
31    H12      3.0430  -39.6129   22.8177 H       1  LIG   0.0789   0.1000 
32    C15      1.6390  -40.0610   21.0880 C.3     1  LIG  -0.1196  -0.2000 
33    H13      0.6832  -39.9283   21.5242 H       1  LIG   0.0807   0.1000 
34    H14      1.5292  -40.4423   20.1061 H       1  LIG   0.0733   0.1000 
@<TRIPOS>BOND
1     2     1     ar
2     3     2     1
3     4     2     ar
4     5     4     1
5     6     4     ar
6     7     6     ar
7     8     7     1
8     9     8     1
9     10    8     1
10    11    10    1
11    12    11    ar
12    13    12    1
13    14    12    ar
14    15    14    1
15    16    14    ar
16    17    16    1
17    18    16    ar
18    19    11    ar
19    19    18    ar
20    20    19    1
21    21    1     ar
22    21    7     ar
23    21    20    1
24    22    6     1
25    23    22    1
26    24    22    1
27    25    22    1
28    26    10    2
29    27    20    1
30    28    27    1
31    29    27    1
32    30    29    1
33    31    29    1
34    32    27    1
35    32    29    1
36    33    32    1
37    34    32    1
@<TRIPOS>SUBSTRUCTURE
1   LIG    1    
 
########## Name        : 1VRT.lig
########## Description : AM1BCC_CHARGES =  -0.0002 ORIGINAL_CHARGES =  -0.0000

@<TRIPOS>MOLECULE
1VRT.lig
34    37    1     0     0    
SMALL
USER_CHARGES
@<TRIPOS>ATOM
1     N1       4.0540  -36.9310   22.2210 N.ar    1  LIG  -0.6650  -0.6200 
2     C1       4.9660  -36.2380   22.9390 C.ar    1  LIG   0.3947   0.1600 
3     H1       6.0082  -36.2811   22.6707 H       1  LIG   0.0281   0.1500 
4     C2       4.6240  -35.4500   24.0360 C.ar    1  LIG  -0.2334  -0.1500 
5     H2       5.3884  -34.9151   24.5740 H       1  LIG   0.1480   0.1500 
6     C3       3.3050  -35.3690   24.4150 C.ar    1  LIG  -0.0698  -0.1435 
7     C4       2.3460  -36.0770   23.6860 C.ar    1  LIG  -0.0398   0.1170 
8     N2       0.9890  -36.0280   24.1030 N.am    1  LIG  -0.4596  -0.5470 
9     H3       0.7643  -35.9928   25.0860 H       1  LIG   0.3311   0.3700 
10    C5      -0.1450  -36.0180   23.4080 C.2     1  LIG   0.7361   0.5438 
11    C6      -0.1190  -36.0770   21.8860 C.ar    1  LIG  -0.2550   0.0862 
12    C7      -1.1230  -35.3990   21.1890 C.ar    1  LIG  -0.0321  -0.1500 
13    H4      -1.7552  -34.6955   21.7041 H       1  LIG   0.1623   0.1500 
14    C8      -1.2960  -35.6300   19.8690 C.ar    1  LIG  -0.2723  -0.1500 
15    H5      -2.0662  -35.1073   19.3273 H       1  LIG   0.1522   0.1500 
16    C9      -0.4670  -36.5450   19.2400 C.ar    1  LIG   0.4373   0.1600 
17    H6      -0.5947  -36.7554   18.1915 H       1  LIG   0.0280   0.1500 
18    N3       0.5220  -37.2120   19.8740 N.ar    1  LIG  -0.6893  -0.6200 
19    C10      0.7040  -36.9790   21.1800 C.ar    1  LIG   0.6480   0.4100 
20    N4       1.7670  -37.6730   21.8260 N.pl3   1  LIG  -0.6924  -0.3690 
21    C11      2.7540  -36.8570   22.5840 C.ar    1  LIG   0.5805   0.4100 
22    C12      2.9040  -34.5090   25.6010 C.3     1  LIG  -0.0620   0.1435 
23    H7       2.2235  -33.7630   25.2820 H       1  LIG   0.0570   0.0000 
24    H8       2.4436  -35.1154   26.3371 H       1  LIG   0.0495   0.0000 
25    H9       3.7654  -34.0491   26.0108 H       1  LIG   0.0519   0.0000 
26    O1      -1.2400  -35.9060   23.9770 O.2     1  LIG  -0.6361  -0.5700 
27    C13      2.3440  -38.7570   21.0360 C.3     1  LIG   0.1354   0.0690 
28    H10      3.1238  -38.3754   20.4296 H       1  LIG   0.0981   0.1000 
29    C14      2.9380  -39.8900   21.8010 C.3     1  LIG  -0.1181  -0.2000 
30    H11      3.8890  -40.1268   21.3997 H       1  LIG   0.0732   0.1000 
31    H12      3.0430  -39.6129   22.8177 H       1  LIG   0.0789   0.1000 
32    C15      1.6390  -40.0610   21.0880 C.3     1  LIG  -0.1196  -0.2000 
33    H13      0.6832  -39.9283   21.5242 H       1  LIG   0.0807   0.1000 
34    H14      1.5292  -40.4423   20.1061 H       1  LIG   0.0733   0.1000 
@<TRIPOS>BOND
1     2     1     ar
2     3     2     1
3     4     2     ar
4     5     4     1
5     6     4     ar
6     7     6     ar
7     8     7     1
8     9     8     1
9     10    8     1
10    11    10    1
11    12    11    ar
12    13    12    1
13    14    12    ar
14    15    14    1
15    16    14    ar
16    17    16    1
17    18    16    ar
18    19    11    ar
19    19    18    ar
20    20    19    1
21    21    1     ar
22    21    7     ar
23    21    20    1
24    22    6     1
25    23    22    1
26    24    22    1
27    25    22    1
28    26    10    2
29    27    20    1
30    28    27    1
31    29    27    1
32    30    29    1
33    31    29    1
34    32    27    1
35    32    29    1
36    33    32    1
37    34    32    1
@<TRIPOS>SUBSTRUCTURE
1   LIG    1    
 
########## Name        : 1VRT.lig
########## Description : AM1BCC_CHARGES =  -0.0002 ORIGINAL_CHARGES =  -0.0000

@<TRIPOS>MOLECULE
1VRT.lig
34    37    1     0     0    
SMALL
USER_CHARGES
@<TRIPOS>ATOM
1     N1       4.0540  -36.9310   22.2210 N.ar    1  LIG  -0.6650  -0.6200 
2     C1       4.9660  -36.2380   22.9390 C.ar    1  LIG   0.3947   0.1600 
3     H1       6.0082  -36.2811   22.6707 H       1  LIG   0.0281   0.1500 
4     C2       4.6240  -35.4500   24.0360 C.ar    1  LIG  -0.2334  -0.1500 
5     H2       5.3884  -34.9151   24.5740 H       1  LIG   0.1480   0.1500 
6     C3       3.3050  -35.3690   24.4150 C.ar    1  LIG  -0.0698  -0.1435 
7     C4       2.3460  -36.0770   23.6860 C.ar    1  LIG  -0.0398   0.1170 
8     N2       0.9890  -36.0280   24.1030 N.am    1  LIG  -0.4596  -0.5470 
9     H3       0.7643  -35.9928   25.0860 H       1  LIG   0.3311   0.3700 
10    C5      -0.1450  -36.0180   23.4080 C.2     1  LIG   0.7361   0.5438 
11    C6      -0.1190  -36.0770   21.8860 C.ar    1  LIG  -0.2550   0.0862 
12    C7      -1.1230  -35.3990   21.1890 C.ar    1  LIG  -0.0321  -0.1500 
13    H4      -1.7552  -34.6955   21.7041 H       1  LIG   0.1623   0.1500 
14    C8      -1.2960  -35.6300   19.8690 C.ar    1  LIG  -0.2723  -0.1500 
15    H5      -2.0662  -35.1073   19.3273 H       1  LIG   0.1522   0.1500 
16    C9      -0.4670  -36.5450   19.2400 C.ar    1  LIG   0.4373   0.1600 
17    H6      -0.5947  -36.7554   18.1915 H       1  LIG   0.0280   0.1500 
18    N3       0.5220  -37.2120   19.8740 N.ar    1  LIG  -0.6893  -0.6200 
19    C10      0.7040  -36.9790   21.1800 C.ar    1  LIG   0.6480   0.4100 
20    N4       1.7670  -37.6730   21.8260 N.pl3   1  LIG  -0.6924  -0.3690 
21    C11      2.7540  -36.8570   22.5840 C.ar    1  LIG   0.5805   0.4100 
22    C12      2.9040  -34.5090   25.6010 C.3     1  LIG  -0.0620   0.1435 
23    H7       2.2235  -33.7630   25.2820 H       1  LIG   0.0570   0.0000 
24    H8       2.4436  -35.1154   26.3371 H       1  LIG   0.0495   0.0000 
25    H9       3.7654  -34.0491   26.0108 H       1  LIG   0.0519   0.0000 
26    O1      -1.2400  -35.9060   23.9770 O.2     1  LIG  -0.6361  -0.5700 
27    C13      2.3440  -38.7570   21.0360 C.3     1  LIG   0.1354   0.0690 
28    H10      3.1238  -38.3754   20.4296 H       1  LIG   0.0981   0.1000 
29    C14      2.9380  -39.8900   21.8010 C.3     1  LIG  -0.1181  -0.2000 
30    H11      3.8890  -40.1268   21.3997 H       1  LIG   0.0732   0.1000 
31    H12      3.0430  -39.6129   22.8177 H       1  LIG   0.0789   0.1000 
32    C15      1.6390  -40.0610   21.0880 C.3     1  LIG  -0.1196  -0.2000 
33    H13      0.6832  -39.9283   21.5242 H       1  LIG   0.0807   0.1000 
34    H14      1.5292  -40.4423   20.1061 H       1  LIG   0.0733   0.1000 
@<TRIPOS>BOND
1     2     1     ar
2     3     2     1
3     4     2     ar
4     5     4     1
5     6     4     ar
6     7     6     ar
7     8     7     1
8     9     8     1
9     10    8     1
10    11    10    1
11    12    11    ar
12    13    12    1
13    14    12    ar
14    15    14    1
15    16    14    ar
16    17    16    1
17    18    16    ar
18    19    11    ar
19    19    18    ar
20    20    19    1
21    21    1     ar
22    21    7     ar
23    21    20    1
24    22    6     1
25    23    22    1
26    24    22    1
27    25    22    1
28    26    10    2
29    27    20    1
30    28    27    1
31    29    27    1
32    30    29    1
33    31    29    1
34    32    27    1
35    32    29    1
36    33    32    1
37    34    32    1
@<TRIPOS>SUBSTRUCTURE
1   LIG    1    
 
########## Name        : 1VRT.lig
########## Description : AM1BCC_CHARGES =  -0.0002 ORIGINAL_CHARGES =  -0.0000

@<TRIPOS>MOLECULE
1VRT.lig
34    37    1     0     0    
SMALL
USER_CHARGES
@<TRIPOS>ATOM
1     N1       4.0540  -36.9310   22.2210 N.ar    1  LIG  -0.6650  -0.6200 
2     C1       4.9660  -36.2380   22.9390 C.ar    1  LIG   0.3947   0.1600 
3     H1       6.0082  -36.2811   22.6707 H       1  LIG   0.0281   0.1500 
4     C2       4.6240  -35.4500   24.0360 C.ar    1  LIG  -0.2334  -0.1500 
5     H2       5.3884  -34.9151   24.5740 H       1  LIG   0.1480   0.1500 
6     C3       3.3050  -35.3690   24.4150 C.ar    1  LIG  -0.0698  -0.1435 
7     C4       2.3460  -36.0770   23.6860 C.ar    1  LIG  -0.0398   0.1170 
8     N2       0.9890  -36.0280   24.1030 N.am    1  LIG  -0.4596  -0.5470 
9     H3       0.7643  -35.9928   25.0860 H       1  LIG   0.3311   0.3700 
10    C5      -0.1450  -36.0180   23.4080 C.2     1  LIG   0.7361   0.5438 
11    C6      -0.1190  -36.0770   21.8860 C.ar    1  LIG  -0.2550   0.0862 
12    C7      -1.1230  -35.3990   21.1890 C.ar    1  LIG  -0.0321  -0.1500 
13    H4      -1.7552  -34.6955   21.7041 H       1  LIG   0.1623   0.1500 
14    C8      -1.2960  -35.6300   19.8690 C.ar    1  LIG  -0.2723  -0.1500 
15    H5      -2.0662  -35.1073   19.3273 H       1  LIG   0.1522   0.1500 
16    C9      -0.4670  -36.5450   19.2400 C.ar    1  LIG   0.4373   0.1600 
17    H6      -0.5947  -36.7554   18.1915 H       1  LIG   0.0280   0.1500 
18    N3       0.5220  -37.2120   19.8740 N.ar    1  LIG  -0.6893  -0.6200 
19    C10      0.7040  -36.9790   21.1800 C.ar    1  LIG   0.6480   0.4100 
20    N4       1.7670  -37.6730   21.8260 N.pl3   1  LIG  -0.6924  -0.3690 
21    C11      2.7540  -36.8570   22.5840 C.ar    1  LIG   0.5805   0.4100 
22    C12      2.9040  -34.5090   25.6010 C.3     1  LIG  -0.0620   0.1435 
23    H7       2.2235  -33.7630   25.2820 H       1  LIG   0.0570   0.0000 
24    H8       2.4436  -35.1154   26.3371 H       1  LIG   0.0495   0.0000 
25    H9       3.7654  -34.0491   26.0108 H       1  LIG   0.0519   0.0000 
26    O1      -1.2400  -35.9060   23.9770 O.2     1  LIG  -0.6361  -0.5700 
27    C13      2.3440  -38.7570   21.0360 C.3     1  LIG   0.1354   0.0690 
28    H10      3.1238  -38.3754   20.4296 H       1  LIG   0.0981   0.1000 
29    C14      2.9380  -39.8900   21.8010 C.3     1  LIG  -0.1181  -0.2000 
30    H11      3.8890  -40.1268   21.3997 H       1  LIG   0.0732   0.1000 
31    H12      3.0430  -39.6129   22.8177 H       1  LIG   0.0789   0.1000 
32    C15      1.6390  -40.0610   21.0880 C.3     1  LIG  -0.1196  -0.2000 
33    H13      0.6832  -39.9283   21.5242 H       1  LIG   0.0807   0.1000 
34    H14      1.5292  -40.4423   20.1061 H       1  LIG   0.0733   0.1000 
@<TRIPOS>BOND
1     2     1     ar
2     3     2     1
3     4     2     ar
4     5     4     1
5     6     4     ar
6     7     6     ar
7     8     7     1
8     9     8     1
9     10    8     1
10    11    10    1
11    12    11    ar
12    13    12    1
13    14    12    ar
14    15    14    1
15    16    14    ar
16    17    16    1
17    18    16    ar
18    19    11    ar
19    19    18    ar
20    20    19    1
21    21    1     ar
22    21    7     ar
23    21    20    1
24    22    6     1
25    23    22    1
26    24    22    1
27    25    22    1
28    26    10    2
29    27    20    1
30    28    27    1
31    29    27    1
32    30    29    1
33    31    29    1
34    32    27    1
35    32    29    1
36    33    32    1
37    34    32    1
@<TRIPOS>SUBSTRUCTURE
1   LIG    1    
 
########## Name        : 1VRT.lig
########## Description : AM1BCC_CHARGES =  -0.0002 ORIGINAL_CHARGES =  -0.0000

@<TRIPOS>MOLECULE
1VRT.lig
34    37    1     0     0    
SMALL
USER_CHARGES
@<TRIPOS>ATOM
1     N1       4.0540  -36.9310   22.2210 N.ar    1  LIG  -0.6650  -0.6200 
2     C1       4.9660  -36.2380   22.9390 C.ar    1  LIG   0.3947   0.1600 
3     H1       6.0082  -36.2811   22.6707 H       1  LIG   0.0281   0.1500 
4     C2       4.6240  -35.4500   24.0360 C.ar    1  LIG  -0.2334  -0.1500 
5     H2       5.3884  -34.9151   24.5740 H       1  LIG   0.1480   0.1500 
6     C3       3.3050  -35.3690   24.4150 C.ar    1  LIG  -0.0698  -0.1435 
7     C4       2.3460  -36.0770   23.6860 C.ar    1  LIG  -0.0398   0.1170 
8     N2       0.9890  -36.0280   24.1030 N.am    1  LIG  -0.4596  -0.5470 
9     H3       0.7643  -35.9928   25.0860 H       1  LIG   0.3311   0.3700 
10    C5      -0.1450  -36.0180   23.4080 C.2     1  LIG   0.7361   0.5438 
11    C6      -0.1190  -36.0770   21.8860 C.ar    1  LIG  -0.2550   0.0862 
12    C7      -1.1230  -35.3990   21.1890 C.ar    1  LIG  -0.0321  -0.1500 
13    H4      -1.7552  -34.6955   21.7041 H       1  LIG   0.1623   0.1500 
14    C8      -1.2960  -35.6300   19.8690 C.ar    1  LIG  -0.2723  -0.1500 
15    H5      -2.0662  -35.1073   19.3273 H       1  LIG   0.1522   0.1500 
16    C9      -0.4670  -36.5450   19.2400 C.ar    1  LIG   0.4373   0.1600 
17    H6      -0.5947  -36.7554   18.1915 H       1  LIG   0.0280   0.1500 
18    N3       0.5220  -37.2120   19.8740 N.ar    1  LIG  -0.6893  -0.6200 
19    C10      0.7040  -36.9790   21.1800 C.ar    1  LIG   0.6480   0.4100 
20    N4       1.7670  -37.6730   21.8260 N.pl3   1  LIG  -0.6924  -0.3690 
21    C11      2.7540  -36.8570   22.5840 C.ar    1  LIG   0.5805   0.4100 
22    C12      2.9040  -34.5090   25.6010 C.3     1  LIG  -0.0620   0.1435 
23    H7       2.2235  -33.7630   25.2820 H       1  LIG   0.0570   0.0000 
24    H8       2.4436  -35.1154   26.3371 H       1  LIG   0.0495   0.0000 
25    H9       3.7654  -34.0491   26.0108 H       1  LIG   0.0519   0.0000 
26    O1      -1.2400  -35.9060   23.9770 O.2     1  LIG  -0.6361  -0.5700 
27    C13      2.3440  -38.7570   21.0360 C.3     1  LIG   0.1354   0.0690 
28    H10      3.1238  -38.3754   20.4296 H       1  LIG   0.0981   0.1000 
29    C14      2.9380  -39.8900   21.8010 C.3     1  LIG  -0.1181  -0.2000 
30    H11      3.8890  -40.1268   21.3997 H       1  LIG   0.0732   0.1000 
31    H12      3.0430  -39.6129   22.8177 H       1  LIG   0.0789   0.1000 
32    C15      1.6390  -40.0610   21.0880 C.3     1  LIG  -0.1196  -0.2000 
33    H13      0.6832  -39.9283   21.5242 H       1  LIG   0.0807   0.1000 
34    H14      1.5292  -40.4423   20.1061 H       1  LIG   0.0733   0.1000 
@<TRIPOS>BOND
1     2     1     ar
2     3     2     1
3     4     2     ar
4     5     4     1
5     6     4     ar
6     7     6     ar
7     8     7     1
8     9     8     1
9     10    8     1
10    11    10    1
11    12    11    ar
12    13    12    1
13    14    12    ar
14    15    14    1
15    16    14    ar
16    17    16    1
17    18    16    ar
18    19    11    ar
19    19    18    ar
20    20    19    1
21    21    1     ar
22    21    7     ar
23    21    20    1
24    22    6     1
25    23    22    1
26    24    22    1
27    25    22    1
28    26    10    2
29    27    20    1
30    28    27    1
31    29    27    1
32    30    29    1
33    31    29    1
34    32    27    1
35    32    29    1
36    33    32    1
37    34    32    1
@<TRIPOS>SUBSTRUCTURE
1   LIG    1    
 
########## Name        : 1VRT.lig
########## Description : AM1BCC_CHARGES =  -0.0002 ORIGINAL_CHARGES =  -0.0000

@<TRIPOS>MOLECULE
1VRT.lig
34    37    1     0     0    
SMALL
USER_CHARGES
@<TRIPOS>ATOM
1     N1       4.0540  -36.9310   22.2210 N.ar    1  LIG  -0.6650  -0.6200 
2     C1       4.9660  -36.2380   22.9390 C.ar    1  LIG   0.3947   0.1600 
3     H1       6.0082  -36.2811   22.6707 H       1  LIG   0.0281   0.1500 
4     C2       4.6240  -35.4500   24.0360 C.ar    1  LIG  -0.2334  -0.1500 
5     H2       5.3884  -34.9151   24.5740 H       1  LIG   0.1480   0.1500 
6     C3       3.3050  -35.3690   24.4150 C.ar    1  LIG  -0.0698  -0.1435 
7     C4       2.3460  -36.0770   23.6860 C.ar    1  LIG  -0.0398   0.1170 
8     N2       0.9890  -36.0280   24.1030 N.am    1  LIG  -0.4596  -0.5470 
9     H3       0.7643  -35.9928   25.0860 H       1  LIG   0.3311   0.3700 
10    C5      -0.1450  -36.0180   23.4080 C.2     1  LIG   0.7361   0.5438 
11    C6      -0.1190  -36.0770   21.8860 C.ar    1  LIG  -0.2550   0.0862 
12    C7      -1.1230  -35.3990   21.1890 C.ar    1  LIG  -0.0321  -0.1500 
13    H4      -1.7552  -34.6955   21.7041 H       1  LIG   0.1623   0.1500 
14    C8      -1.2960  -35.6300   19.8690 C.ar    1  LIG  -0.2723  -0.1500 
15    H5      -2.0662  -35.1073   19.3273 H       1  LIG   0.1522   0.1500 
16    C9      -0.4670  -36.5450   19.2400 C.ar    1  LIG   0.4373   0.1600 
17    H6      -0.5947  -36.7554   18.1915 H       1  LIG   0.0280   0.1500 
18    N3       0.5220  -37.2120   19.8740 N.ar    1  LIG  -0.6893  -0.6200 
19    C10      0.7040  -36.9790   21.1800 C.ar    1  LIG   0.6480   0.4100 
20    N4       1.7670  -37.6730   21.8260 N.pl3   1  LIG  -0.6924  -0.3690 
21    C11      2.7540  -36.8570   22.5840 C.ar    1  LIG   0.5805   0.4100 
22    C12      2.9040  -34.5090   25.6010 C.3     1  LIG  -0.0620   0.1435 
23    H7       2.2235  -33.7630   25.2820 H       1  LIG   0.0570   0.0000 
24    H8       2.4436  -35.1154   26.3371 H       1  LIG   0.0495   0.0000 
25    H9       3.7654  -34.0491   26.0108 H       1  LIG   0.0519   0.0000 
26    O1      -1.2400  -35.9060   23.9770 O.2     1  LIG  -0.6361  -0.5700 
27    C13      2.3440  -38.7570   21.0360 C.3     1  LIG   0.1354   0.0690 
28    H10      3.1238  -38.3754   20.4296 H       1  LIG   0.0981   0.1000 
29    C14      2.9380  -39.8900   21.8010 C.3     1  LIG  -0.1181  -0.2000 
30    H11      3.8890  -40.1268   21.3997 H       1  LIG   0.0732   0.1000 
31    H12      3.0430  -39.6129   22.8177 H       1  LIG   0.0789   0.1000 
32    C15      1.6390  -40.0610   21.0880 C.3     1  LIG  -0.1196  -0.2000 
33    H13      0.6832  -39.9283   21.5242 H       1  LIG   0.0807   0.1000 
34    H14      1.5292  -40.4423   20.1061 H       1  LIG   0.0733   0.1000 
@<TRIPOS>BOND
1     2     1     ar
2     3     2     1
3     4     2     ar
4     5     4     1
5     6     4     ar
6     7     6     ar
7     8     7     1
8     9     8     1
9     10    8     1
10    11    10    1
11    12    11    ar
12    13    12    1
13    14    12    ar
14    15    14    1
15    16    14    ar
16    17    16    1
17    18    16    ar
18    19    11    ar
19    19    18    ar
20    20    19    1
21    21    1     ar
22    21    7     ar
23    21    20    1
24    22    6     1
25    23    22    1
26    24    22    1
27    25    22    1
28    26    10    2
29    27    20    1
30    28    27    1
31    29    27    1
32    30    29    1
33    31    29    1
34    32    27    1
35    32    29    1
36    33    32    1
37    34    32    1
@<TRIPOS>SUBSTRUCTURE
1   LIG    1    
 
########## Name        : 1VRT.lig
########## Description : AM1BCC_CHARGES =  -0.0002 ORIGINAL_CHARGES =  -0.0000

@<TRIPOS>MOLECULE
1VRT.lig
34    37    1     0     0    
SMALL
USER_CHARGES
@<TRIPOS>ATOM
1     N1       4.0540  -36.9310   22.2210 N.ar    1  LIG  -0.6650  -0.6200 
2     C1       4.9660  -36.2380   22.9390 C.ar    1  LIG   0.3947   0.1600 
3     H1       6.0082  -36.2811   22.6707 H       1  LIG   0.0281   0.1500 
4     C2       4.6240  -35.4500   24.0360 C.ar    1  LIG  -0.2334  -0.1500 
5     H2       5.3884  -34.9151   24.5740 H       1  LIG   0.1480   0.1500 
6     C3       3.3050  -35.3690   24.4150 C.ar    1  LIG  -0.0698  -0.1435 
7     C4       2.3460  -36.0770   23.6860 C.ar    1  LIG  -0.0398   0.1170 
8     N2       0.9890  -36.0280   24.1030 N.am    1  LIG  -0.4596  -0.5470 
9     H3       0.7643  -35.9928   25.0860 H       1  LIG   0.3311   0.3700 
10    C5      -0.1450  -36.0180   23.4080 C.2     1  LIG   0.7361   0.5438 
11    C6      -0.1190  -36.0770   21.8860 C.ar    1  LIG  -0.2550   0.0862 
12    C7      -1.1230  -35.3990   21.1890 C.ar    1  LIG  -0.0321  -0.1500 
13    H4      -1.7552  -34.6955   21.7041 H       1  LIG   0.1623   0.1500 
14    C8      -1.2960  -35.6300   19.8690 C.ar    1  LIG  -0.2723  -0.1500 
15    H5      -2.0662  -35.1073   19.3273 H       1  LIG   0.1522   0.1500 
16    C9      -0.4670  -36.5450   19.2400 C.ar    1  LIG   0.4373   0.1600 
17    H6      -0.5947  -36.7554   18.1915 H       1  LIG   0.0280   0.1500 
18    N3       0.5220  -37.2120   19.8740 N.ar    1  LIG  -0.6893  -0.6200 
19    C10      0.7040  -36.9790   21.1800 C.ar    1  LIG   0.6480   0.4100 
20    N4       1.7670  -37.6730   21.8260 N.pl3   1  LIG  -0.6924  -0.3690 
21    C11      2.7540  -36.8570   22.5840 C.ar    1  LIG   0.5805   0.4100 
22    C12      2.9040  -34.5090   25.6010 C.3     1  LIG  -0.0620   0.1435 
23    H7       2.2235  -33.7630   25.2820 H       1  LIG   0.0570   0.0000 
24    H8       2.4436  -35.1154   26.3371 H       1  LIG   0.0495   0.0000 
25    H9       3.7654  -34.0491   26.0108 H       1  LIG   0.0519   0.0000 
26    O1      -1.2400  -35.9060   23.9770 O.2     1  LIG  -0.6361  -0.5700 
27    C13      2.3440  -38.7570   21.0360 C.3     1  LIG   0.1354   0.0690 
28    H10      3.1238  -38.3754   20.4296 H       1  LIG   0.0981   0.1000 
29    C14      2.9380  -39.8900   21.8010 C.3     1  LIG  -0.1181  -0.2000 
30    H11      3.8890  -40.1268   21.3997 H       1  LIG   0.0732   0.1000 
31    H12      3.0430  -39.6129   22.8177 H       1  LIG   0.0789   0.1000 
32    C15      1.6390  -40.0610   21.0880 C.3     1  LIG  -0.1196  -0.2000 
33    H13      0.6832  -39.9283   21.5242 H       1  LIG   0.0807   0.1000 
34    H14      1.5292  -40.4423   20.1061 H       1  LIG   0.0733   0.1000 
@<TRIPOS>BOND
1     2     1     ar
2     3     2     1
3     4     2     ar
4     5     4     1
5     6     4     ar
6     7     6     ar
7     8     7     1
8     9     8     1
9     10    8     1
10    11    10    1
11    12    11    ar
12    13    12    1
13    14    12    ar
14    15    14    1
15    16    14    ar
16    17    16    1
17    18    16    ar
18    19    11    ar
19    19    18    ar
20    20    19    1
21    21    1     ar
22    21    7     ar
23    21    20    1
24    22    6     1
25    23    22    1
26    24    22    1
27    25    22    1
28    26    10    2
29    27    20    1
30    28    27    1
31    29    27    1
32    30    29    1
33    31    29    1
34    32    27    1
35    32    29    1
36    33    32    1
37    34    32    1
@<TRIPOS>SUBSTRUCTURE
1   LIG    1    
 
########## Name        : 1VRT.lig
########## Description : AM1BCC_CHARGES =  -0.0002 ORIGINAL_CHARGES =  -0.0000

@<TRIPOS>MOLECULE
1VRT.lig
34    37    1     0     0    
SMALL
USER_CHARGES
@<TRIPOS>ATOM
1     N1       4.0540  -36.9310   22.2210 N.ar    1  LIG  -0.6650  -0.6200 
2     C1       4.9660  -36.2380   22.9390 C.ar    1  LIG   0.3947   0.1600 
3     H1       6.0082  -36.2811   22.6707 H       1  LIG   0.0281   0.1500 
4     C2       4.6240  -35.4500   24.0360 C.ar    1  LIG  -0.2334  -0.1500 
5     H2       5.3884  -34.9151   24.5740 H       1  LIG   0.1480   0.1500 
6     C3       3.3050  -35.3690   24.4150 C.ar    1  LIG  -0.0698  -0.1435 
7     C4       2.3460  -36.0770   23.6860 C.ar    1  LIG  -0.0398   0.1170 
8     N2       0.9890  -36.0280   24.1030 N.am    1  LIG  -0.4596  -0.5470 
9     H3       0.7643  -35.9928   25.0860 H       1  LIG   0.3311   0.3700 
10    C5      -0.1450  -36.0180   23.4080 C.2     1  LIG   0.7361   0.5438 
11    C6      -0.1190  -36.0770   21.8860 C.ar    1  LIG  -0.2550   0.0862 
12    C7      -1.1230  -35.3990   21.1890 C.ar    1  LIG  -0.0321  -0.1500 
13    H4      -1.7552  -34.6955   21.7041 H       1  LIG   0.1623   0.1500 
14    C8      -1.2960  -35.6300   19.8690 C.ar    1  LIG  -0.2723  -0.1500 
15    H5      -2.0662  -35.1073   19.3273 H       1  LIG   0.1522   0.1500 
16    C9      -0.4670  -36.5450   19.2400 C.ar    1  LIG   0.4373   0.1600 
17    H6      -0.5947  -36.7554   18.1915 H       1  LIG   0.0280   0.1500 
18    N3       0.5220  -37.2120   19.8740 N.ar    1  LIG  -0.6893  -0.6200 
19    C10      0.7040  -36.9790   21.1800 C.ar    1  LIG   0.6480   0.4100 
20    N4       1.7670  -37.6730   21.8260 N.pl3   1  LIG  -0.6924  -0.3690 
21    C11      2.7540  -36.8570   22.5840 C.ar    1  LIG   0.5805   0.4100 
22    C12      2.9040  -34.5090   25.6010 C.3     1  LIG  -0.0620   0.1435 
23    H7       2.2235  -33.7630   25.2820 H       1  LIG   0.0570   0.0000 
24    H8       2.4436  -35.1154   26.3371 H       1  LIG   0.0495   0.0000 
25    H9       3.7654  -34.0491   26.0108 H       1  LIG   0.0519   0.0000 
26    O1      -1.2400  -35.9060   23.9770 O.2     1  LIG  -0.6361  -0.5700 
27    C13      2.3440  -38.7570   21.0360 C.3     1  LIG   0.1354   0.0690 
28    H10      3.1238  -38.3754   20.4296 H       1  LIG   0.0981   0.1000 
29    C14      2.9380  -39.8900   21.8010 C.3     1  LIG  -0.1181  -0.2000 
30    H11      3.8890  -40.1268   21.3997 H       1  LIG   0.0732   0.1000 
31    H12      3.0430  -39.6129   22.8177 H       1  LIG   0.0789   0.1000 
32    C15      1.6390  -40.0610   21.0880 C.3     1  LIG  -0.1196  -0.2000 
33    H13      0.6832  -39.9283   21.5242 H       1  LIG   0.0807   0.1000 
34    H14      1.5292  -40.4423   20.1061 H       1  LIG   0.0733   0.1000 
@<TRIPOS>BOND
1     2     1     ar
2     3     2     1
3     4     2     ar
4     5     4     1
5     6     4     ar
6     7     6     ar
7     8     7     1
8     9     8     1
9     10    8     1
10    11    10    1
11    12    11    ar
12    13    12    1
13    14    12    ar
14    15    14    1
15    16    14    ar
16    17    16    1
17    18    16    ar
18    19    11    ar
19    19    18    ar
20    20    19    1
21    21    1     ar
22    21    7     ar
23    21    20    1
24    22    6     1
25    23    22    1
26    24    22    1
27    25    22    1
28    26    10    2
29    27    20    1
30    28    27    1
31    29    27    1
32    30    29    1
33    31    29    1
34    32    27    1
35    32    29    1
36    33    32    1
37    34    32    1
@<TRIPOS>SUBSTRUCTURE
1   LIG    1    
 
########## Name        : 1VRT.lig
########## Description : AM1BCC_CHARGES =  -0.0002 ORIGINAL_CHARGES =  -0.0000

@<TRIPOS>MOLECULE
1VRT.lig
34    37    1     0     0    
SMALL
USER_CHARGES
@<TRIPOS>ATOM
1     N1       4.0540  -36.9310   22.2210 N.ar    1  LIG  -0.6650  -0.6200 
2     C1       4.9660  -36.2380   22.9390 C.ar    1  LIG   0.3947   0.1600 
3     H1       6.0082  -36.2811   22.6707 H       1  LIG   0.0281   0.1500 
4     C2       4.6240  -35.4500   24.0360 C.ar    1  LIG  -0.2334  -0.1500 
5     H2       5.3884  -34.9151   24.5740 H       1  LIG   0.1480   0.1500 
6     C3       3.3050  -35.3690   24.4150 C.ar    1  LIG  -0.0698  -0.1435 
7     C4       2.3460  -36.0770   23.6860 C.ar    1  LIG  -0.0398   0.1170 
8     N2       0.9890  -36.0280   24.1030 N.am    1  LIG  -0.4596  -0.5470 
9     H3       0.7643  -35.9928   25.0860 H       1  LIG   0.3311   0.3700 
10    C5      -0.1450  -36.0180   23.4080 C.2     1  LIG   0.7361   0.5438 
11    C6      -0.1190  -36.0770   21.8860 C.ar    1  LIG  -0.2550   0.0862 
12    C7      -1.1230  -35.3990   21.1890 C.ar    1  LIG  -0.0321  -0.1500 
13    H4      -1.7552  -34.6955   21.7041 H       1  LIG   0.1623   0.1500 
14    C8      -1.2960  -35.6300   19.8690 C.ar    1  LIG  -0.2723  -0.1500 
15    H5      -2.0662  -35.1073   19.3273 H       1  LIG   0.1522   0.1500 
16    C9      -0.4670  -36.5450   19.2400 C.ar    1  LIG   0.4373   0.1600 
17    H6      -0.5947  -36.7554   18.1915 H       1  LIG   0.0280   0.1500 
18    N3       0.5220  -37.2120   19.8740 N.ar    1  LIG  -0.6893  -0.6200 
19    C10      0.7040  -36.9790   21.1800 C.ar    1  LIG   0.6480   0.4100 
20    N4       1.7670  -37.6730   21.8260 N.pl3   1  LIG  -0.6924  -0.3690 
21    C11      2.7540  -36.8570   22.5840 C.ar    1  LIG   0.5805   0.4100 
22    C12      2.9040  -34.5090   25.6010 C.3     1  LIG  -0.0620   0.1435 
23    H7       2.2235  -33.7630   25.2820 H       1  LIG   0.0570   0.0000 
24    H8       2.4436  -35.1154   26.3371 H       1  LIG   0.0495   0.0000 
25    H9       3.7654  -34.0491   26.0108 H       1  LIG   0.0519   0.0000 
26    O1      -1.2400  -35.9060   23.9770 O.2     1  LIG  -0.6361  -0.5700 
27    C13      2.3440  -38.7570   21.0360 C.3     1  LIG   0.1354   0.0690 
28    H10      3.1238  -38.3754   20.4296 H       1  LIG   0.0981   0.1000 
29    C14      2.9380  -39.8900   21.8010 C.3     1  LIG  -0.1181  -0.2000 
30    H11      3.8890  -40.1268   21.3997 H       1  LIG   0.0732   0.1000 
31    H12      3.0430  -39.6129   22.8177 H       1  LIG   0.0789   0.1000 
32    C15      1.6390  -40.0610   21.0880 C.3     1  LIG  -0.1196  -0.2000 
33    H13      0.6832  -39.9283   21.5242 H       1  LIG   0.0807   0.1000 
34    H14      1.5292  -40.4423   20.1061 H       1  LIG   0.0733   0.1000 
@<TRIPOS>BOND
1     2     1     ar
2     3     2     1
3     4     2     ar
4     5     4     1
5     6     4     ar
6     7     6     ar
7     8     7     1
8     9     8     1
9     10    8     1
10    11    10    1
11    12    11    ar
12    13    12    1
13    14    12    ar
14    15    14    1
15    16    14    ar
16    17    16    1
17    18    16    ar
18    19    11    ar
19    19    18    ar
20    20    19    1
21    21    1     ar
22    21    7     ar
23    21    20    1
24    22    6     1
25    23    22    1
26    24    22    1
27    25    22    1
28    26    10    2
29    27    20    1
30    28    27    1
31    29    27    1
32    30    29    1
33    31    29    1
34    32    27    1
35    32    29    1
36    33    32    1
37    34    32    1
@<TRIPOS>SUBSTRUCTURE
1   LIG    1    
 
########## Name        : 1VRT.lig
########## Description : AM1BCC_CHARGES =  -0.0002 ORIGINAL_CHARGES =  -0.0000

@<TRIPOS>MOLECULE
1VRT.lig
34    37    1     0     0    
SMALL
USER_CHARGES
@<TRIPOS>ATOM
1     N1       4.0540  -36.9310   22.2210 N.ar    1  LIG  -0.6650  -0.6200 
2     C1       4.9660  -36.2380   22.9390 C.ar    1  LIG   0.3947   0.1600 
3     H1       6.0082  -36.2811   22.6707 H       1  LIG   0.0281   0.1500 
4     C2       4.6240  -35.4500   24.0360 C.ar    1  LIG  -0.2334  -0.1500 
5     H2       5.3884  -34.9151   24.5740 H       1  LIG   0.1480   0.1500 
6     C3       3.3050  -35.3690   24.4150 C.ar    1  LIG  -0.0698  -0.1435 
7     C4       2.3460  -36.0770   23.6860 C.ar    1  LIG  -0.0398   0.1170 
8     N2       0.9890  -36.0280   24.1030 N.am    1  LIG  -0.4596  -0.5470 
9     H3       0.7643  -35.9928   25.0860 H       1  LIG   0.3311   0.3700 
10    C5      -0.1450  -36.0180   23.4080 C.2     1  LIG   0.7361   0.5438 
11    C6      -0.1190  -36.0770   21.8860 C.ar    1  LIG  -0.2550   0.0862 
12    C7      -1.1230  -35.3990   21.1890 C.ar    1  LIG  -0.0321  -0.1500 
13    H4      -1.7552  -34.6955   21.7041 H       1  LIG   0.1623   0.1500 
14    C8      -1.2960  -35.6300   19.8690 C.ar    1  LIG  -0.2723  -0.1500 
15    H5      -2.0662  -35.1073   19.3273 H       1  LIG   0.1522   0.1500 
16    C9      -0.4670  -36.5450   19.2400 C.ar    1  LIG   0.4373   0.1600 
17    H6      -0.5947  -36.7554   18.1915 H       1  LIG   0.0280   0.1500 
18    N3       0.5220  -37.2120   19.8740 N.ar    1  LIG  -0.6893  -0.6200 
19    C10      0.7040  -36.9790   21.1800 C.ar    1  LIG   0.6480   0.4100 
20    N4       1.7670  -37.6730   21.8260 N.pl3   1  LIG  -0.6924  -0.3690 
21    C11      2.7540  -36.8570   22.5840 C.ar    1  LIG   0.5805   0.4100 
22    C12      2.9040  -34.5090   25.6010 C.3     1  LIG  -0.0620   0.1435 
23    H7       2.2235  -33.7630   25.2820 H       1  LIG   0.0570   0.0000 
24    H8       2.4436  -35.1154   26.3371 H       1  LIG   0.0495   0.0000 
25    H9       3.7654  -34.0491   26.0108 H       1  LIG   0.0519   0.0000 
26    O1      -1.2400  -35.9060   23.9770 O.2     1  LIG  -0.6361  -0.5700 
27    C13      2.3440  -38.7570   21.0360 C.3     1  LIG   0.1354   0.0690 
28    H10      3.1238  -38.3754   20.4296 H       1  LIG   0.0981   0.1000 
29    C14      2.9380  -39.8900   21.8010 C.3     1  LIG  -0.1181  -0.2000 
30    H11      3.8890  -40.1268   21.3997 H       1  LIG   0.0732   0.1000 
31    H12      3.0430  -39.6129   22.8177 H       1  LIG   0.0789   0.1000 
32    C15      1.6390  -40.0610   21.0880 C.3     1  LIG  -0.1196  -0.2000 
33    H13      0.6832  -39.9283   21.5242 H       1  LIG   0.0807   0.1000 
34    H14      1.5292  -40.4423   20.1061 H       1  LIG   0.0733   0.1000 
@<TRIPOS>BOND
1     2     1     ar
2     3     2     1
3     4     2     ar
4     5     4     1
5     6     4     ar
6     7     6     ar
7     8     7     1
8     9     8     1
9     10    8     1
10    11    10    1
11    12    11    ar
12    13    12    1
13    14    12    ar
14    15    14    1
15    16    14    ar
16    17    16    1
17    18    16    ar
18    19    11    ar
19    19    18    ar
20    20    19    1
21    21    1     ar
22    21    7     ar
23    21    20    1
24    22    6     1
25    23    22    1
26    24    22    1
27    25    22    1
28    26    10    2
29    27    20    1
30    28    27    1
31    29    27    1
32    30    29    1
33    31    29    1
34    32    27    1
35    32    29    1
36    33    32    1
37    34    32    1
@<TRIPOS>SUBSTRUCTURE
1   LIG    1    
 
########## Name        : 1VRT.lig
########## Description : AM1BCC_CHARGES =  -0.0002 ORIGINAL_CHARGES =  -0.0000

@<TRIPOS>MOLECULE
1VRT.lig
34    37    1     0     0    
SMALL
USER_CHARGES
@<TRIPOS>ATOM
1     N1       4.0540  -36.9310   22.2210 N.ar    1  LIG  -0.6650  -0.6200 
2     C1       4.9660  -36.2380   22.9390 C.ar    1  LIG   0.3947   0.1600 
3     H1       6.0082  -36.2811   22.6707 H       1  LIG   0.0281   0.1500 
4     C2       4.6240  -35.4500   24.0360 C.ar    1  LIG  -0.2334  -0.1500 
5     H2       5.3884  -34.9151   24.5740 H       1  LIG   0.1480   0.1500 
6     C3       3.3050  -35.3690   24.4150 C.ar    1  LIG  -0.0698  -0.1435 
7     C4       2.3460  -36.0770   23.6860 C.ar    1  LIG  -0.0398   0.1170 
8     N2       0.9890  -36.0280   24.1030 N.am    1  LIG  -0.4596  -0.5470 
9     H3       0.7643  -35.9928   25.0860 H       1  LIG   0.3311   0.3700 
10    C5      -0.1450  -36.0180   23.4080 C.2     1  LIG   0.7361   0.5438 
11    C6      -0.1190  -36.0770   21.8860 C.ar    1  LIG  -0.2550   0.0862 
12    C7      -1.1230  -35.3990   21.1890 C.ar    1  LIG  -0.0321  -0.1500 
13    H4      -1.7552  -34.6955   21.7041 H       1  LIG   0.1623   0.1500 
14    C8      -1.2960  -35.6300   19.8690 C.ar    1  LIG  -0.2723  -0.1500 
15    H5      -2.0662  -35.1073   19.3273 H       1  LIG   0.1522   0.1500 
16    C9      -0.4670  -36.5450   19.2400 C.ar    1  LIG   0.4373   0.1600 
17    H6      -0.5947  -36.7554   18.1915 H       1  LIG   0.0280   0.1500 
18    N3       0.5220  -37.2120   19.8740 N.ar    1  LIG  -0.6893  -0.6200 
19    C10      0.7040  -36.9790   21.1800 C.ar    1  LIG   0.6480   0.4100 
20    N4       1.7670  -37.6730   21.8260 N.pl3   1  LIG  -0.6924  -0.3690 
21    C11      2.7540  -36.8570   22.5840 C.ar    1  LIG   0.5805   0.4100 
22    C12      2.9040  -34.5090   25.6010 C.3     1  LIG  -0.0620   0.1435 
23    H7       2.2235  -33.7630   25.2820 H       1  LIG   0.0570   0.0000 
24    H8       2.4436  -35.1154   26.3371 H       1  LIG   0.0495   0.0000 
25    H9       3.7654  -34.0491   26.0108 H       1  LIG   0.0519   0.0000 
26    O1      -1.2400  -35.9060   23.9770 O.2     1  LIG  -0.6361  -0.5700 
27    C13      2.3440  -38.7570   21.0360 C.3     1  LIG   0.1354   0.0690 
28    H10      3.1238  -38.3754   20.4296 H       1  LIG   0.0981   0.1000 
29    C14      2.9380  -39.8900   21.8010 C.3     1  LIG  -0.1181  -0.2000 
30    H11      3.8890  -40.1268   21.3997 H       1  LIG   0.0732   0.1000 
31    H12      3.0430  -39.6129   22.8177 H       1  LIG   0.0789   0.1000 
32    C15      1.6390  -40.0610   21.0880 C.3     1  LIG  -0.1196  -0.2000 
33    H13      0.6832  -39.9283   21.5242 H       1  LIG   0.0807   0.1000 
34    H14      1.5292  -40.4423   20.1061 H       1  LIG   0.0733   0.1000 
@<TRIPOS>BOND
1     2     1     ar
2     3     2     1
3     4     2     ar
4     5     4     1
5     6     4     ar
6     7     6     ar
7     8     7     1
8     9     8     1
9     10    8     1
10    11    10    1
11    12    11    ar
12    13    12    1
13    14    12    ar
14    15    14    1
15    16    14    ar
16    17    16    1
17    18    16    ar
18    19    11    ar
19    19    18    ar
20    20    19    1
21    21    1     ar
22    21    7     ar
23    21    20    1
24    22    6     1
25    23    22    1
26    24    22    1
27    25    22    1
28    26    10    2
29    27    20    1
30    28    27    1
31    29    27    1
32    30    29    1
33    31    29    1
34    32    27    1
35    32    29    1
36    33    32    1
37    34    32    1
@<TRIPOS>SUBSTRUCTURE
1   LIG    1    
 
########## Name        : 1VRT.lig
########## Description : AM1BCC_CHARGES =  -0.0002 ORIGINAL_CHARGES =  -0.0000

@<TRIPOS>MOLECULE
1VRT.lig
34    37    1     0     0    
SMALL
USER_CHARGES
@<TRIPOS>ATOM
1     N1       4.0540  -36.9310   22.2210 N.ar    1  LIG  -0.6650  -0.6200 
2     C1       4.9660  -36.2380   22.9390 C.ar    1  LIG   0.3947   0.1600 
3     H1       6.0082  -36.2811   22.6707 H       1  LIG   0.0281   0.1500 
4     C2       4.6240  -35.4500   24.0360 C.ar    1  LIG  -0.2334  -0.1500 
5     H2       5.3884  -34.9151   24.5740 H       1  LIG   0.1480   0.1500 
6     C3       3.3050  -35.3690   24.4150 C.ar    1  LIG  -0.0698  -0.1435 
7     C4       2.3460  -36.0770   23.6860 C.ar    1  LIG  -0.0398   0.1170 
8     N2       0.9890  -36.0280   24.1030 N.am    1  LIG  -0.4596  -0.5470 
9     H3       0.7643  -35.9928   25.0860 H       1  LIG   0.3311   0.3700 
10    C5      -0.1450  -36.0180   23.4080 C.2     1  LIG   0.7361   0.5438 
11    C6      -0.1190  -36.0770   21.8860 C.ar    1  LIG  -0.2550   0.0862 
12    C7      -1.1230  -35.3990   21.1890 C.ar    1  LIG  -0.0321  -0.1500 
13    H4      -1.7552  -34.6955   21.7041 H       1  LIG   0.1623   0.1500 
14    C8      -1.2960  -35.6300   19.8690 C.ar    1  LIG  -0.2723  -0.1500 
15    H5      -2.0662  -35.1073   19.3273 H       1  LIG   0.1522   0.1500 
16    C9      -0.4670  -36.5450   19.2400 C.ar    1  LIG   0.4373   0.1600 
17    H6      -0.5947  -36.7554   18.1915 H       1  LIG   0.0280   0.1500 
18    N3       0.5220  -37.2120   19.8740 N.ar    1  LIG  -0.6893  -0.6200 
19    C10      0.7040  -36.9790   21.1800 C.ar    1  LIG   0.6480   0.4100 
20    N4       1.7670  -37.6730   21.8260 N.pl3   1  LIG  -0.6924  -0.3690 
21    C11      2.7540  -36.8570   22.5840 C.ar    1  LIG   0.5805   0.4100 
22    C12      2.9040  -34.5090   25.6010 C.3     1  LIG  -0.0620   0.1435 
23    H7       2.2235  -33.7630   25.2820 H       1  LIG   0.0570   0.0000 
24    H8       2.4436  -35.1154   26.3371 H       1  LIG   0.0495   0.0000 
25    H9       3.7654  -34.0491   26.0108 H       1  LIG   0.0519   0.0000 
26    O1      -1.2400  -35.9060   23.9770 O.2     1  LIG  -0.6361  -0.5700 
27    C13      2.3440  -38.7570   21.0360 C.3     1  LIG   0.1354   0.0690 
28    H10      3.1238  -38.3754   20.4296 H       1  LIG   0.0981   0.1000 
29    C14      2.9380  -39.8900   21.8010 C.3     1  LIG  -0.1181  -0.2000 
30    H11      3.8890  -40.1268   21.3997 H       1  LIG   0.0732   0.1000 
31    H12      3.0430  -39.6129   22.8177 H       1  LIG   0.0789   0.1000 
32    C15      1.6390  -40.0610   21.0880 C.3     1  LIG  -0.1196  -0.2000 
33    H13      0.6832  -39.9283   21.5242 H       1  LIG   0.0807   0.1000 
34    H14      1.5292  -40.4423   20.1061 H       1  LIG   0.0733   0.1000 
@<TRIPOS>BOND
1     2     1     ar
2     3     2     1
3     4     2     ar
4     5     4     1
5     6     4     ar
6     7     6     ar
7     8     7     1
8     9     8     1
9     10    8     1
10    11    10    1
11    12    11    ar
12    13    12    1
13    14    12    ar
14    15    14    1
15    16    14    ar
16    17    16    1
17    18    16    ar
18    19    11    ar
19    19    18    ar
20    20    19    1
21    21    1     ar
22    21    7     ar
23    21    20    1
24    22    6     1
25    23    22    1
26    24    22    1
27    25    22    1
28    26    10    2
29    27    20    1
30    28    27    1
31    29    27    1
32    30    29    1
33    31    29    1
34    32    27    1
35    32    29    1
36    33    32    1
37    34    32    1
@<TRIPOS>SUBSTRUCTURE
1   LIG    1    
 
########## Name        : 1VRT.lig
########## Description : AM1BCC_CHARGES =  -0.0002 ORIGINAL_CHARGES =  -0.0000

@<TRIPOS>MOLECULE
1VRT.lig
34    37    1     0     0    
SMALL
USER_CHARGES
@<TRIPOS>ATOM
1     N1       4.0540  -36.9310   22.2210 N.ar    1  LIG  -0.6650  -0.6200 
2     C1       4.9660  -36.2380   22.9390 C.ar    1  LIG   0.3947   0.1600 
3     H1       6.0082  -36.2811   22.6707 H       1  LIG   0.0281   0.1500 
4     C2       4.6240  -35.4500   24.0360 C.ar    1  LIG  -0.2334  -0.1500 
5     H2       5.3884  -34.9151   24.5740 H       1  LIG   0.1480   0.1500 
6     C3       3.3050  -35.3690   24.4150 C.ar    1  LIG  -0.0698  -0.1435 
7     C4       2.3460  -36.0770   23.6860 C.ar    1  LIG  -0.0398   0.1170 
8     N2       0.9890  -36.0280   24.1030 N.am    1  LIG  -0.4596  -0.5470 
9     H3       0.7643  -35.9928   25.0860 H       1  LIG   0.3311   0.3700 
10    C5      -0.1450  -36.0180   23.4080 C.2     1  LIG   0.7361   0.5438 
11    C6      -0.1190  -36.0770   21.8860 C.ar    1  LIG  -0.2550   0.0862 
12    C7      -1.1230  -35.3990   21.1890 C.ar    1  LIG  -0.0321  -0.1500 
13    H4      -1.7552  -34.6955   21.7041 H       1  LIG   0.1623   0.1500 
14    C8      -1.2960  -35.6300   19.8690 C.ar    1  LIG  -0.2723  -0.1500 
15    H5      -2.0662  -35.1073   19.3273 H       1  LIG   0.1522   0.1500 
16    C9      -0.4670  -36.5450   19.2400 C.ar    1  LIG   0.4373   0.1600 
17    H6      -0.5947  -36.7554   18.1915 H       1  LIG   0.0280   0.1500 
18    N3       0.5220  -37.2120   19.8740 N.ar    1  LIG  -0.6893  -0.6200 
19    C10      0.7040  -36.9790   21.1800 C.ar    1  LIG   0.6480   0.4100 
20    N4       1.7670  -37.6730   21.8260 N.pl3   1  LIG  -0.6924  -0.3690 
21    C11      2.7540  -36.8570   22.5840 C.ar    1  LIG   0.5805   0.4100 
22    C12      2.9040  -34.5090   25.6010 C.3     1  LIG  -0.0620   0.1435 
23    H7       2.2235  -33.7630   25.2820 H       1  LIG   0.0570   0.0000 
24    H8       2.4436  -35.1154   26.3371 H       1  LIG   0.0495   0.0000 
25    H9       3.7654  -34.0491   26.0108 H       1  LIG   0.0519   0.0000 
26    O1      -1.2400  -35.9060   23.9770 O.2     1  LIG  -0.6361  -0.5700 
27    C13      2.3440  -38.7570   21.0360 C.3     1  LIG   0.1354   0.0690 
28    H10      3.1238  -38.3754   20.4296 H       1  LIG   0.0981   0.1000 
29    C14      2.9380  -39.8900   21.8010 C.3     1  LIG  -0.1181  -0.2000 
30    H11      3.8890  -40.1268   21.3997 H       1  LIG   0.0732   0.1000 
31    H12      3.0430  -39.6129   22.8177 H       1  LIG   0.0789   0.1000 
32    C15      1.6390  -40.0610   21.0880 C.3     1  LIG  -0.1196  -0.2000 
33    H13      0.6832  -39.9283   21.5242 H       1  LIG   0.0807   0.1000 
34    H14      1.5292  -40.4423   20.1061 H       1  LIG   0.0733   0.1000 
@<TRIPOS>BOND
1     2     1     ar
2     3     2     1
3     4     2     ar
4     5     4     1
5     6     4     ar
6     7     6     ar
7     8     7     1
8     9     8     1
9     10    8     1
10    11    10    1
11    12    11    ar
12    13    12    1
13    14    12    ar
14    15    14    1
15    16    14    ar
16    17    16    1
17    18    16    ar
18    19    11    ar
19    19    18    ar
20    20    19    1
21    21    1     ar
22    21    7     ar
23    21    20    1
24    22    6     1
25    23    22    1
26    24    22    1
27    25    22    1
28    26    10    2
29    27    20    1
30    28    27    1
31    29    27    1
32    30    29    1
33    31    29    1
34    32    27    1
35    32    29    1
36    33    32    1
37    34    32    1
@<TRIPOS>SUBSTRUCTURE
1   LIG    1    
 
########## Name        : 1VRT.lig
########## Description : AM1BCC_CHARGES =  -0.0002 ORIGINAL_CHARGES =  -0.0000

@<TRIPOS>MOLECULE
1VRT.lig
34    37    1     0     0    
SMALL
USER_CHARGES
@<TRIPOS>ATOM
1     N1       4.0540  -36.9310   22.2210 N.ar    1  LIG  -0.6650  -0.6200 
2     C1       4.9660  -36.2380   22.9390 C.ar    1  LIG   0.3947   0.1600 
3     H1       6.0082  -36.2811   22.6707 H       1  LIG   0.0281   0.1500 
4     C2       4.6240  -35.4500   24.0360 C.ar    1  LIG  -0.2334  -0.1500 
5     H2       5.3884  -34.9151   24.5740 H       1  LIG   0.1480   0.1500 
6     C3       3.3050  -35.3690   24.4150 C.ar    1  LIG  -0.0698  -0.1435 
7     C4       2.3460  -36.0770   23.6860 C.ar    1  LIG  -0.0398   0.1170 
8     N2       0.9890  -36.0280   24.1030 N.am    1  LIG  -0.4596  -0.5470 
9     H3       0.7643  -35.9928   25.0860 H       1  LIG   0.3311   0.3700 
10    C5      -0.1450  -36.0180   23.4080 C.2     1  LIG   0.7361   0.5438 
11    C6      -0.1190  -36.0770   21.8860 C.ar    1  LIG  -0.2550   0.0862 
12    C7      -1.1230  -35.3990   21.1890 C.ar    1  LIG  -0.0321  -0.1500 
13    H4      -1.7552  -34.6955   21.7041 H       1  LIG   0.1623   0.1500 
14    C8      -1.2960  -35.6300   19.8690 C.ar    1  LIG  -0.2723  -0.1500 
15    H5      -2.0662  -35.1073   19.3273 H       1  LIG   0.1522   0.1500 
16    C9      -0.4670  -36.5450   19.2400 C.ar    1  LIG   0.4373   0.1600 
17    H6      -0.5947  -36.7554   18.1915 H       1  LIG   0.0280   0.1500 
18    N3       0.5220  -37.2120   19.8740 N.ar    1  LIG  -0.6893  -0.6200 
19    C10      0.7040  -36.9790   21.1800 C.ar    1  LIG   0.6480   0.4100 
20    N4       1.7670  -37.6730   21.8260 N.pl3   1  LIG  -0.6924  -0.3690 
21    C11      2.7540  -36.8570   22.5840 C.ar    1  LIG   0.5805   0.4100 
22    C12      2.9040  -34.5090   25.6010 C.3     1  LIG  -0.0620   0.1435 
23    H7       2.2235  -33.7630   25.2820 H       1  LIG   0.0570   0.0000 
24    H8       2.4436  -35.1154   26.3371 H       1  LIG   0.0495   0.0000 
25    H9       3.7654  -34.0491   26.0108 H       1  LIG   0.0519   0.0000 
26    O1      -1.2400  -35.9060   23.9770 O.2     1  LIG  -0.6361  -0.5700 
27    C13      2.3440  -38.7570   21.0360 C.3     1  LIG   0.1354   0.0690 
28    H10      3.1238  -38.3754   20.4296 H       1  LIG   0.0981   0.1000 
29    C14      2.9380  -39.8900   21.8010 C.3     1  LIG  -0.1181  -0.2000 
30    H11      3.8890  -40.1268   21.3997 H       1  LIG   0.0732   0.1000 
31    H12      3.0430  -39.6129   22.8177 H       1  LIG   0.0789   0.1000 
32    C15      1.6390  -40.0610   21.0880 C.3     1  LIG  -0.1196  -0.2000 
33    H13      0.6832  -39.9283   21.5242 H       1  LIG   0.0807   0.1000 
34    H14      1.5292  -40.4423   20.1061 H       1  LIG   0.0733   0.1000 
@<TRIPOS>BOND
1     2     1     ar
2     3     2     1
3     4     2     ar
4     5     4     1
5     6     4     ar
6     7     6     ar
7     8     7     1
8     9     8     1
9     10    8     1
10    11    10    1
11    12    11    ar
12    13    12    1
13    14    12    ar
14    15    14    1
15    16    14    ar
16    17    16    1
17    18    16    ar
18    19    11    ar
19    19    18    ar
20    20    19    1
21    21    1     ar
22    21    7     ar
23    21    20    1
24    22    6     1
25    23    22    1
26    24    22    1
27    25    22    1
28    26    10    2
29    27    20    1
30    28    27    1
31    29    27    1
32    30    29    1
33    31    29    1
34    32    27    1
35    32    29    1
36    33    32    1
37    34    32    1
@<TRIPOS>SUBSTRUCTURE
1   LIG    1    
 
########## Name        : 1VRT.lig
########## Description : AM1BCC_CHARGES =  -0.0002 ORIGINAL_CHARGES =  -0.0000

@<TRIPOS>MOLECULE
1VRT.lig
34    37    1     0     0    
SMALL
USER_CHARGES
@<TRIPOS>ATOM
1     N1       4.0540  -36.9310   22.2210 N.ar    1  LIG  -0.6650  -0.6200 
2     C1       4.9660  -36.2380   22.9390 C.ar    1  LIG   0.3947   0.1600 
3     H1       6.0082  -36.2811   22.6707 H       1  LIG   0.0281   0.1500 
4     C2       4.6240  -35.4500   24.0360 C.ar    1  LIG  -0.2334  -0.1500 
5     H2       5.3884  -34.9151   24.5740 H       1  LIG   0.1480   0.1500 
6     C3       3.3050  -35.3690   24.4150 C.ar    1  LIG  -0.0698  -0.1435 
7     C4       2.3460  -36.0770   23.6860 C.ar    1  LIG  -0.0398   0.1170 
8     N2       0.9890  -36.0280   24.1030 N.am    1  LIG  -0.4596  -0.5470 
9     H3       0.7643  -35.9928   25.0860 H       1  LIG   0.3311   0.3700 
10    C5      -0.1450  -36.0180   23.4080 C.2     1  LIG   0.7361   0.5438 
11    C6      -0.1190  -36.0770   21.8860 C.ar    1  LIG  -0.2550   0.0862 
12    C7      -1.1230  -35.3990   21.1890 C.ar    1  LIG  -0.0321  -0.1500 
13    H4      -1.7552  -34.6955   21.7041 H       1  LIG   0.1623   0.1500 
14    C8      -1.2960  -35.6300   19.8690 C.ar    1  LIG  -0.2723  -0.1500 
15    H5      -2.0662  -35.1073   19.3273 H       1  LIG   0.1522   0.1500 
16    C9      -0.4670  -36.5450   19.2400 C.ar    1  LIG   0.4373   0.1600 
17    H6      -0.5947  -36.7554   18.1915 H       1  LIG   0.0280   0.1500 
18    N3       0.5220  -37.2120   19.8740 N.ar    1  LIG  -0.6893  -0.6200 
19    C10      0.7040  -36.9790   21.1800 C.ar    1  LIG   0.6480   0.4100 
20    N4       1.7670  -37.6730   21.8260 N.pl3   1  LIG  -0.6924  -0.3690 
21    C11      2.7540  -36.8570   22.5840 C.ar    1  LIG   0.5805   0.4100 
22    C12      2.9040  -34.5090   25.6010 C.3     1  LIG  -0.0620   0.1435 
23    H7       2.2235  -33.7630   25.2820 H       1  LIG   0.0570   0.0000 
24    H8       2.4436  -35.1154   26.3371 H       1  LIG   0.0495   0.0000 
25    H9       3.7654  -34.0491   26.0108 H       1  LIG   0.0519   0.0000 
26    O1      -1.2400  -35.9060   23.9770 O.2     1  LIG  -0.6361  -0.5700 
27    C13      2.3440  -38.7570   21.0360 C.3     1  LIG   0.1354   0.0690 
28    H10      3.1238  -38.3754   20.4296 H       1  LIG   0.0981   0.1000 
29    C14      2.9380  -39.8900   21.8010 C.3     1  LIG  -0.1181  -0.2000 
30    H11      3.8890  -40.1268   21.3997 H       1  LIG   0.0732   0.1000 
31    H12      3.0430  -39.6129   22.8177 H       1  LIG   0.0789   0.1000 
32    C15      1.6390  -40.0610   21.0880 C.3     1  LIG  -0.1196  -0.2000 
33    H13      0.6832  -39.9283   21.5242 H       1  LIG   0.0807   0.1000 
34    H14      1.5292  -40.4423   20.1061 H       1  LIG   0.0733   0.1000 
@<TRIPOS>BOND
1     2     1     ar
2     3     2     1
3     4     2     ar
4     5     4     1
5     6     4     ar
6     7     6     ar
7     8     7     1
8     9     8     1
9     10    8     1
10    11    10    1
11    12    11    ar
12    13    12    1
13    14    12    ar
14    15    14    1
15    16    14    ar
16    17    16    1
17    18    16    ar
18    19    11    ar
19    19    18    ar
20    20    19    1
21    21    1     ar
22    21    7     ar
23    21    20    1
24    22    6     1
25    23    22    1
26    24    22    1
27    25    22    1
28    26    10    2
29    27    20    1
30    28    27    1
31    29    27    1
32    30    29    1
33    31    29    1
34    32    27    1
35    32    29    1
36    33    32    1
37    34    32    1
@<TRIPOS>SUBSTRUCTURE
1   LIG    1    
 
########## Name        : 1VRT.lig
########## Description : AM1BCC_CHARGES =  -0.0002 ORIGINAL_CHARGES =  -0.0000

@<TRIPOS>MOLECULE
1VRT.lig
34    37    1     0     0    
SMALL
USER_CHARGES
@<TRIPOS>ATOM
1     N1       4.0540  -36.9310   22.2210 N.ar    1  LIG  -0.6650  -0.6200 
2     C1       4.9660  -36.2380   22.9390 C.ar    1  LIG   0.3947   0.1600 
3     H1       6.0082  -36.2811   22.6707 H       1  LIG   0.0281   0.1500 
4     C2       4.6240  -35.4500   24.0360 C.ar    1  LIG  -0.2334  -0.1500 
5     H2       5.3884  -34.9151   24.5740 H       1  LIG   0.1480   0.1500 
6     C3       3.3050  -35.3690   24.4150 C.ar    1  LIG  -0.0698  -0.1435 
7     C4       2.3460  -36.0770   23.6860 C.ar    1  LIG  -0.0398   0.1170 
8     N2       0.9890  -36.0280   24.1030 N.am    1  LIG  -0.4596  -0.5470 
9     H3       0.7643  -35.9928   25.0860 H       1  LIG   0.3311   0.3700 
10    C5      -0.1450  -36.0180   23.4080 C.2     1  LIG   0.7361   0.5438 
11    C6      -0.1190  -36.0770   21.8860 C.ar    1  LIG  -0.2550   0.0862 
12    C7      -1.1230  -35.3990   21.1890 C.ar    1  LIG  -0.0321  -0.1500 
13    H4      -1.7552  -34.6955   21.7041 H       1  LIG   0.1623   0.1500 
14    C8      -1.2960  -35.6300   19.8690 C.ar    1  LIG  -0.2723  -0.1500 
15    H5      -2.0662  -35.1073   19.3273 H       1  LIG   0.1522   0.1500 
16    C9      -0.4670  -36.5450   19.2400 C.ar    1  LIG   0.4373   0.1600 
17    H6      -0.5947  -36.7554   18.1915 H       1  LIG   0.0280   0.1500 
18    N3       0.5220  -37.2120   19.8740 N.ar    1  LIG  -0.6893  -0.6200 
19    C10      0.7040  -36.9790   21.1800 C.ar    1  LIG   0.6480   0.4100 
20    N4       1.7670  -37.6730   21.8260 N.pl3   1  LIG  -0.6924  -0.3690 
21    C11      2.7540  -36.8570   22.5840 C.ar    1  LIG   0.5805   0.4100 
22    C12      2.9040  -34.5090   25.6010 C.3     1  LIG  -0.0620   0.1435 
23    H7       2.2235  -33.7630   25.2820 H       1  LIG   0.0570   0.0000 
24    H8       2.4436  -35.1154   26.3371 H       1  LIG   0.0495   0.0000 
25    H9       3.7654  -34.0491   26.0108 H       1  LIG   0.0519   0.0000 
26    O1      -1.2400  -35.9060   23.9770 O.2     1  LIG  -0.6361  -0.5700 
27    C13      2.3440  -38.7570   21.0360 C.3     1  LIG   0.1354   0.0690 
28    H10      3.1238  -38.3754   20.4296 H       1  LIG   0.0981   0.1000 
29    C14      2.9380  -39.8900   21.8010 C.3     1  LIG  -0.1181  -0.2000 
30    H11      3.8890  -40.1268   21.3997 H       1  LIG   0.0732   0.1000 
31    H12      3.0430  -39.6129   22.8177 H       1  LIG   0.0789   0.1000 
32    C15      1.6390  -40.0610   21.0880 C.3     1  LIG  -0.1196  -0.2000 
33    H13      0.6832  -39.9283   21.5242 H       1  LIG   0.0807   0.1000 
34    H14      1.5292  -40.4423   20.1061 H       1  LIG   0.0733   0.1000 
@<TRIPOS>BOND
1     2     1     ar
2     3     2     1
3     4     2     ar
4     5     4     1
5     6     4     ar
6     7     6     ar
7     8     7     1
8     9     8     1
9     10    8     1
10    11    10    1
11    12    11    ar
12    13    12    1
13    14    12    ar
14    15    14    1
15    16    14    ar
16    17    16    1
17    18    16    ar
18    19    11    ar
19    19    18    ar
20    20    19    1
21    21    1     ar
22    21    7     ar
23    21    20    1
24    22    6     1
25    23    22    1
26    24    22    1
27    25    22    1
28    26    10    2
29    27    20    1
30    28    27    1
31    29    27    1
32    30    29    1
33    31    29    1
34    32    27    1
35    32    29    1
36    33    32    1
37    34    32    1
@<TRIPOS>SUBSTRUCTURE
1   LIG    1    
 
########## Name        : 1VRT.lig
########## Description : AM1BCC_CHARGES =  -0.0002 ORIGINAL_CHARGES =  -0.0000

@<TRIPOS>MOLECULE
1VRT.lig
34    37    1     0     0    
SMALL
USER_CHARGES
@<TRIPOS>ATOM
1     N1       4.0540  -36.9310   22.2210 N.ar    1  LIG  -0.6650  -0.6200 
2     C1       4.9660  -36.2380   22.9390 C.ar    1  LIG   0.3947   0.1600 
3     H1       6.0082  -36.2811   22.6707 H       1  LIG   0.0281   0.1500 
4     C2       4.6240  -35.4500   24.0360 C.ar    1  LIG  -0.2334  -0.1500 
5     H2       5.3884  -34.9151   24.5740 H       1  LIG   0.1480   0.1500 
6     C3       3.3050  -35.3690   24.4150 C.ar    1  LIG  -0.0698  -0.1435 
7     C4       2.3460  -36.0770   23.6860 C.ar    1  LIG  -0.0398   0.1170 
8     N2       0.9890  -36.0280   24.1030 N.am    1  LIG  -0.4596  -0.5470 
9     H3       0.7643  -35.9928   25.0860 H       1  LIG   0.3311   0.3700 
10    C5      -0.1450  -36.0180   23.4080 C.2     1  LIG   0.7361   0.5438 
11    C6      -0.1190  -36.0770   21.8860 C.ar    1  LIG  -0.2550   0.0862 
12    C7      -1.1230  -35.3990   21.1890 C.ar    1  LIG  -0.0321  -0.1500 
13    H4      -1.7552  -34.6955   21.7041 H       1  LIG   0.1623   0.1500 
14    C8      -1.2960  -35.6300   19.8690 C.ar    1  LIG  -0.2723  -0.1500 
15    H5      -2.0662  -35.1073   19.3273 H       1  LIG   0.1522   0.1500 
16    C9      -0.4670  -36.5450   19.2400 C.ar    1  LIG   0.4373   0.1600 
17    H6      -0.5947  -36.7554   18.1915 H       1  LIG   0.0280   0.1500 
18    N3       0.5220  -37.2120   19.8740 N.ar    1  LIG  -0.6893  -0.6200 
19    C10      0.7040  -36.9790   21.1800 C.ar    1  LIG   0.6480   0.4100 
20    N4       1.7670  -37.6730   21.8260 N.pl3   1  LIG  -0.6924  -0.3690 
21    C11      2.7540  -36.8570   22.5840 C.ar    1  LIG   0.5805   0.4100 
22    C12      2.9040  -34.5090   25.6010 C.3     1  LIG  -0.0620   0.1435 
23    H7       2.2235  -33.7630   25.2820 H       1  LIG   0.0570   0.0000 
24    H8       2.4436  -35.1154   26.3371 H       1  LIG   0.0495   0.0000 
25    H9       3.7654  -34.0491   26.0108 H       1  LIG   0.0519   0.0000 
26    O1      -1.2400  -35.9060   23.9770 O.2     1  LIG  -0.6361  -0.5700 
27    C13      2.3440  -38.7570   21.0360 C.3     1  LIG   0.1354   0.0690 
28    H10      3.1238  -38.3754   20.4296 H       1  LIG   0.0981   0.1000 
29    C14      2.9380  -39.8900   21.8010 C.3     1  LIG  -0.1181  -0.2000 
30    H11      3.8890  -40.1268   21.3997 H       1  LIG   0.0732   0.1000 
31    H12      3.0430  -39.6129   22.8177 H       1  LIG   0.0789   0.1000 
32    C15      1.6390  -40.0610   21.0880 C.3     1  LIG  -0.1196  -0.2000 
33    H13      0.6832  -39.9283   21.5242 H       1  LIG   0.0807   0.1000 
34    H14      1.5292  -40.4423   20.1061 H       1  LIG   0.0733   0.1000 
@<TRIPOS>BOND
1     2     1     ar
2     3     2     1
3     4     2     ar
4     5     4     1
5     6     4     ar
6     7     6     ar
7     8     7     1
8     9     8     1
9     10    8     1
10    11    10    1
11    12    11    ar
12    13    12    1
13    14    12    ar
14    15    14    1
15    16    14    ar
16    17    16    1
17    18    16    ar
18    19    11    ar
19    19    18    ar
20    20    19    1
21    21    1     ar
22    21    7     ar
23    21    20    1
24    22    6     1
25    23    22    1
26    24    22    1
27    25    22    1
28    26    10    2
29    27    20    1
30    28    27    1
31    29    27    1
32    30    29    1
33    31    29    1
34    32    27    1
35    32    29    1
36    33    32    1
37    34    32    1
@<TRIPOS>SUBSTRUCTURE
1   LIG    1    
 
########## Name        : 1VRT.lig
########## Description : AM1BCC_CHARGES =  -0.0002 ORIGINAL_CHARGES =  -0.0000

@<TRIPOS>MOLECULE
1VRT.lig
34    37    1     0     0    
SMALL
USER_CHARGES
@<TRIPOS>ATOM
1     N1       4.0540  -36.9310   22.2210 N.ar    1  LIG  -0.6650  -0.6200 
2     C1       4.9660  -36.2380   22.9390 C.ar    1  LIG   0.3947   0.1600 
3     H1       6.0082  -36.2811   22.6707 H       1  LIG   0.0281   0.1500 
4     C2       4.6240  -35.4500   24.0360 C.ar    1  LIG  -0.2334  -0.1500 
5     H2       5.3884  -34.9151   24.5740 H       1  LIG   0.1480   0.1500 
6     C3       3.3050  -35.3690   24.4150 C.ar    1  LIG  -0.0698  -0.1435 
7     C4       2.3460  -36.0770   23.6860 C.ar    1  LIG  -0.0398   0.1170 
8     N2       0.9890  -36.0280   24.1030 N.am    1  LIG  -0.4596  -0.5470 
9     H3       0.7643  -35.9928   25.0860 H       1  LIG   0.3311   0.3700 
10    C5      -0.1450  -36.0180   23.4080 C.2     1  LIG   0.7361   0.5438 
11    C6      -0.1190  -36.0770   21.8860 C.ar    1  LIG  -0.2550   0.0862 
12    C7      -1.1230  -35.3990   21.1890 C.ar    1  LIG  -0.0321  -0.1500 
13    H4      -1.7552  -34.6955   21.7041 H       1  LIG   0.1623   0.1500 
14    C8      -1.2960  -35.6300   19.8690 C.ar    1  LIG  -0.2723  -0.1500 
15    H5      -2.0662  -35.1073   19.3273 H       1  LIG   0.1522   0.1500 
16    C9      -0.4670  -36.5450   19.2400 C.ar    1  LIG   0.4373   0.1600 
17    H6      -0.5947  -36.7554   18.1915 H       1  LIG   0.0280   0.1500 
18    N3       0.5220  -37.2120   19.8740 N.ar    1  LIG  -0.6893  -0.6200 
19    C10      0.7040  -36.9790   21.1800 C.ar    1  LIG   0.6480   0.4100 
20    N4       1.7670  -37.6730   21.8260 N.pl3   1  LIG  -0.6924  -0.3690 
21    C11      2.7540  -36.8570   22.5840 C.ar    1  LIG   0.5805   0.4100 
22    C12      2.9040  -34.5090   25.6010 C.3     1  LIG  -0.0620   0.1435 
23    H7       2.2235  -33.7630   25.2820 H       1  LIG   0.0570   0.0000 
24    H8       2.4436  -35.1154   26.3371 H       1  LIG   0.0495   0.0000 
25    H9       3.7654  -34.0491   26.0108 H       1  LIG   0.0519   0.0000 
26    O1      -1.2400  -35.9060   23.9770 O.2     1  LIG  -0.6361  -0.5700 
27    C13      2.3440  -38.7570   21.0360 C.3     1  LIG   0.1354   0.0690 
28    H10      3.1238  -38.3754   20.4296 H       1  LIG   0.0981   0.1000 
29    C14      2.9380  -39.8900   21.8010 C.3     1  LIG  -0.1181  -0.2000 
30    H11      3.8890  -40.1268   21.3997 H       1  LIG   0.0732   0.1000 
31    H12      3.0430  -39.6129   22.8177 H       1  LIG   0.0789   0.1000 
32    C15      1.6390  -40.0610   21.0880 C.3     1  LIG  -0.1196  -0.2000 
33    H13      0.6832  -39.9283   21.5242 H       1  LIG   0.0807   0.1000 
34    H14      1.5292  -40.4423   20.1061 H       1  LIG   0.0733   0.1000 
@<TRIPOS>BOND
1     2     1     ar
2     3     2     1
3     4     2     ar
4     5     4     1
5     6     4     ar
6     7     6     ar
7     8     7     1
8     9     8     1
9     10    8     1
10    11    10    1
11    12    11    ar
12    13    12    1
13    14    12    ar
14    15    14    1
15    16    14    ar
16    17    16    1
17    18    16    ar
18    19    11    ar
19    19    18    ar
20    20    19    1
21    21    1     ar
22    21    7     ar
23    21    20    1
24    22    6     1
25    23    22    1
26    24    22    1
27    25    22    1
28    26    10    2
29    27    20    1
30    28    27    1
31    29    27    1
32    30    29    1
33    31    29    1
34    32    27    1
35    32    29    1
36    33    32    1
37    34    32    1
@<TRIPOS>SUBSTRUCTURE
1   LIG    1    
 
########## Name        : 1VRT.lig
########## Description : AM1BCC_CHARGES =  -0.0002 ORIGINAL_CHARGES =  -0.0000

@<TRIPOS>MOLECULE
1VRT.lig
34    37    1     0     0    
SMALL
USER_CHARGES
@<TRIPOS>ATOM
1     N1       4.0540  -36.9310   22.2210 N.ar    1  LIG  -0.6650  -0.6200 
2     C1       4.9660  -36.2380   22.9390 C.ar    1  LIG   0.3947   0.1600 
3     H1       6.0082  -36.2811   22.6707 H       1  LIG   0.0281   0.1500 
4     C2       4.6240  -35.4500   24.0360 C.ar    1  LIG  -0.2334  -0.1500 
5     H2       5.3884  -34.9151   24.5740 H       1  LIG   0.1480   0.1500 
6     C3       3.3050  -35.3690   24.4150 C.ar    1  LIG  -0.0698  -0.1435 
7     C4       2.3460  -36.0770   23.6860 C.ar    1  LIG  -0.0398   0.1170 
8     N2       0.9890  -36.0280   24.1030 N.am    1  LIG  -0.4596  -0.5470 
9     H3       0.7643  -35.9928   25.0860 H       1  LIG   0.3311   0.3700 
10    C5      -0.1450  -36.0180   23.4080 C.2     1  LIG   0.7361   0.5438 
11    C6      -0.1190  -36.0770   21.8860 C.ar    1  LIG  -0.2550   0.0862 
12    C7      -1.1230  -35.3990   21.1890 C.ar    1  LIG  -0.0321  -0.1500 
13    H4      -1.7552  -34.6955   21.7041 H       1  LIG   0.1623   0.1500 
14    C8      -1.2960  -35.6300   19.8690 C.ar    1  LIG  -0.2723  -0.1500 
15    H5      -2.0662  -35.1073   19.3273 H       1  LIG   0.1522   0.1500 
16    C9      -0.4670  -36.5450   19.2400 C.ar    1  LIG   0.4373   0.1600 
17    H6      -0.5947  -36.7554   18.1915 H       1  LIG   0.0280   0.1500 
18    N3       0.5220  -37.2120   19.8740 N.ar    1  LIG  -0.6893  -0.6200 
19    C10      0.7040  -36.9790   21.1800 C.ar    1  LIG   0.6480   0.4100 
20    N4       1.7670  -37.6730   21.8260 N.pl3   1  LIG  -0.6924  -0.3690 
21    C11      2.7540  -36.8570   22.5840 C.ar    1  LIG   0.5805   0.4100 
22    C12      2.9040  -34.5090   25.6010 C.3     1  LIG  -0.0620   0.1435 
23    H7       2.2235  -33.7630   25.2820 H       1  LIG   0.0570   0.0000 
24    H8       2.4436  -35.1154   26.3371 H       1  LIG   0.0495   0.0000 
25    H9       3.7654  -34.0491   26.0108 H       1  LIG   0.0519   0.0000 
26    O1      -1.2400  -35.9060   23.9770 O.2     1  LIG  -0.6361  -0.5700 
27    C13      2.3440  -38.7570   21.0360 C.3     1  LIG   0.1354   0.0690 
28    H10      3.1238  -38.3754   20.4296 H       1  LIG   0.0981   0.1000 
29    C14      2.9380  -39.8900   21.8010 C.3     1  LIG  -0.1181  -0.2000 
30    H11      3.8890  -40.1268   21.3997 H       1  LIG   0.0732   0.1000 
31    H12      3.0430  -39.6129   22.8177 H       1  LIG   0.0789   0.1000 
32    C15      1.6390  -40.0610   21.0880 C.3     1  LIG  -0.1196  -0.2000 
33    H13      0.6832  -39.9283   21.5242 H       1  LIG   0.0807   0.1000 
34    H14      1.5292  -40.4423   20.1061 H       1  LIG   0.0733   0.1000 
@<TRIPOS>BOND
1     2     1     ar
2     3     2     1
3     4     2     ar
4     5     4     1
5     6     4     ar
6     7     6     ar
7     8     7     1
8     9     8     1
9     10    8     1
10    11    10    1
11    12    11    ar
12    13    12    1
13    14    12    ar
14    15    14    1
15    16    14    ar
16    17    16    1
17    18    16    ar
18    19    11    ar
19    19    18    ar
20    20    19    1
21    21    1     ar
22    21    7     ar
23    21    20    1
24    22    6     1
25    23    22    1
26    24    22    1
27    25    22    1
28    26    10    2
29    27    20    1
30    28    27    1
31    29    27    1
32    30    29    1
33    31    29    1
34    32    27    1
35    32    29    1
36    33    32    1
37    34    32    1
@<TRIPOS>SUBSTRUCTURE
1   LIG    1    
 
########## Name        : 1VRT.lig
########## Description : AM1BCC_CHARGES =  -0.0002 ORIGINAL_CHARGES =  -0.0000

@<TRIPOS>MOLECULE
1VRT.lig
34    37    1     0     0    
SMALL
USER_CHARGES
@<TRIPOS>ATOM
1     N1       4.0540  -36.9310   22.2210 N.ar    1  LIG  -0.6650  -0.6200 
2     C1       4.9660  -36.2380   22.9390 C.ar    1  LIG   0.3947   0.1600 
3     H1       6.0082  -36.2811   22.6707 H       1  LIG   0.0281   0.1500 
4     C2       4.6240  -35.4500   24.0360 C.ar    1  LIG  -0.2334  -0.1500 
5     H2       5.3884  -34.9151   24.5740 H       1  LIG   0.1480   0.1500 
6     C3       3.3050  -35.3690   24.4150 C.ar    1  LIG  -0.0698  -0.1435 
7     C4       2.3460  -36.0770   23.6860 C.ar    1  LIG  -0.0398   0.1170 
8     N2       0.9890  -36.0280   24.1030 N.am    1  LIG  -0.4596  -0.5470 
9     H3       0.7643  -35.9928   25.0860 H       1  LIG   0.3311   0.3700 
10    C5      -0.1450  -36.0180   23.4080 C.2     1  LIG   0.7361   0.5438 
11    C6      -0.1190  -36.0770   21.8860 C.ar    1  LIG  -0.2550   0.0862 
12    C7      -1.1230  -35.3990   21.1890 C.ar    1  LIG  -0.0321  -0.1500 
13    H4      -1.7552  -34.6955   21.7041 H       1  LIG   0.1623   0.1500 
14    C8      -1.2960  -35.6300   19.8690 C.ar    1  LIG  -0.2723  -0.1500 
15    H5      -2.0662  -35.1073   19.3273 H       1  LIG   0.1522   0.1500 
16    C9      -0.4670  -36.5450   19.2400 C.ar    1  LIG   0.4373   0.1600 
17    H6      -0.5947  -36.7554   18.1915 H       1  LIG   0.0280   0.1500 
18    N3       0.5220  -37.2120   19.8740 N.ar    1  LIG  -0.6893  -0.6200 
19    C10      0.7040  -36.9790   21.1800 C.ar    1  LIG   0.6480   0.4100 
20    N4       1.7670  -37.6730   21.8260 N.pl3   1  LIG  -0.6924  -0.3690 
21    C11      2.7540  -36.8570   22.5840 C.ar    1  LIG   0.5805   0.4100 
22    C12      2.9040  -34.5090   25.6010 C.3     1  LIG  -0.0620   0.1435 
23    H7       2.2235  -33.7630   25.2820 H       1  LIG   0.0570   0.0000 
24    H8       2.4436  -35.1154   26.3371 H       1  LIG   0.0495   0.0000 
25    H9       3.7654  -34.0491   26.0108 H       1  LIG   0.0519   0.0000 
26    O1      -1.2400  -35.9060   23.9770 O.2     1  LIG  -0.6361  -0.5700 
27    C13      2.3440  -38.7570   21.0360 C.3     1  LIG   0.1354   0.0690 
28    H10      3.1238  -38.3754   20.4296 H       1  LIG   0.0981   0.1000 
29    C14      2.9380  -39.8900   21.8010 C.3     1  LIG  -0.1181  -0.2000 
30    H11      3.8890  -40.1268   21.3997 H       1  LIG   0.0732   0.1000 
31    H12      3.0430  -39.6129   22.8177 H       1  LIG   0.0789   0.1000 
32    C15      1.6390  -40.0610   21.0880 C.3     1  LIG  -0.1196  -0.2000 
33    H13      0.6832  -39.9283   21.5242 H       1  LIG   0.0807   0.1000 
34    H14      1.5292  -40.4423   20.1061 H       1  LIG   0.0733   0.1000 
@<TRIPOS>BOND
1     2     1     ar
2     3     2     1
3     4     2     ar
4     5     4     1
5     6     4     ar
6     7     6     ar
7     8     7     1
8     9     8     1
9     10    8     1
10    11    10    1
11    12    11    ar
12    13    12    1
13    14    12    ar
14    15    14    1
15    16    14    ar
16    17    16    1
17    18    16    ar
18    19    11    ar
19    19    18    ar
20    20    19    1
21    21    1     ar
22    21    7     ar
23    21    20    1
24    22    6     1
25    23    22    1
26    24    22    1
27    25    22    1
28    26    10    2
29    27    20    1
30    28    27    1
31    29    27    1
32    30    29    1
33    31    29    1
34    32    27    1
35    32    29    1
36    33    32    1
37    34    32    1
@<TRIPOS>SUBSTRUCTURE
1   LIG    1    
 
########## Name        : 1VRT.lig
########## Description : AM1BCC_CHARGES =  -0.0002 ORIGINAL_CHARGES =  -0.0000

@<TRIPOS>MOLECULE
1VRT.lig
34    37    1     0     0    
SMALL
USER_CHARGES
@<TRIPOS>ATOM
1     N1       4.0540  -36.9310   22.2210 N.ar    1  LIG  -0.6650  -0.6200 
2     C1       4.9660  -36.2380   22.9390 C.ar    1  LIG   0.3947   0.1600 
3     H1       6.0082  -36.2811   22.6707 H       1  LIG   0.0281   0.1500 
4     C2       4.6240  -35.4500   24.0360 C.ar    1  LIG  -0.2334  -0.1500 
5     H2       5.3884  -34.9151   24.5740 H       1  LIG   0.1480   0.1500 
6     C3       3.3050  -35.3690   24.4150 C.ar    1  LIG  -0.0698  -0.1435 
7     C4       2.3460  -36.0770   23.6860 C.ar    1  LIG  -0.0398   0.1170 
8     N2       0.9890  -36.0280   24.1030 N.am    1  LIG  -0.4596  -0.5470 
9     H3       0.7643  -35.9928   25.0860 H       1  LIG   0.3311   0.3700 
10    C5      -0.1450  -36.0180   23.4080 C.2     1  LIG   0.7361   0.5438 
11    C6      -0.1190  -36.0770   21.8860 C.ar    1  LIG  -0.2550   0.0862 
12    C7      -1.1230  -35.3990   21.1890 C.ar    1  LIG  -0.0321  -0.1500 
13    H4      -1.7552  -34.6955   21.7041 H       1  LIG   0.1623   0.1500 
14    C8      -1.2960  -35.6300   19.8690 C.ar    1  LIG  -0.2723  -0.1500 
15    H5      -2.0662  -35.1073   19.3273 H       1  LIG   0.1522   0.1500 
16    C9      -0.4670  -36.5450   19.2400 C.ar    1  LIG   0.4373   0.1600 
17    H6      -0.5947  -36.7554   18.1915 H       1  LIG   0.0280   0.1500 
18    N3       0.5220  -37.2120   19.8740 N.ar    1  LIG  -0.6893  -0.6200 
19    C10      0.7040  -36.9790   21.1800 C.ar    1  LIG   0.6480   0.4100 
20    N4       1.7670  -37.6730   21.8260 N.pl3   1  LIG  -0.6924  -0.3690 
21    C11      2.7540  -36.8570   22.5840 C.ar    1  LIG   0.5805   0.4100 
22    C12      2.9040  -34.5090   25.6010 C.3     1  LIG  -0.0620   0.1435 
23    H7       2.2235  -33.7630   25.2820 H       1  LIG   0.0570   0.0000 
24    H8       2.4436  -35.1154   26.3371 H       1  LIG   0.0495   0.0000 
25    H9       3.7654  -34.0491   26.0108 H       1  LIG   0.0519   0.0000 
26    O1      -1.2400  -35.9060   23.9770 O.2     1  LIG  -0.6361  -0.5700 
27    C13      2.3440  -38.7570   21.0360 C.3     1  LIG   0.1354   0.0690 
28    H10      3.1238  -38.3754   20.4296 H       1  LIG   0.0981   0.1000 
29    C14      2.9380  -39.8900   21.8010 C.3     1  LIG  -0.1181  -0.2000 
30    H11      3.8890  -40.1268   21.3997 H       1  LIG   0.0732   0.1000 
31    H12      3.0430  -39.6129   22.8177 H       1  LIG   0.0789   0.1000 
32    C15      1.6390  -40.0610   21.0880 C.3     1  LIG  -0.1196  -0.2000 
33    H13      0.6832  -39.9283   21.5242 H       1  LIG   0.0807   0.1000 
34    H14      1.5292  -40.4423   20.1061 H       1  LIG   0.0733   0.1000 
@<TRIPOS>BOND
1     2     1     ar
2     3     2     1
3     4     2     ar
4     5     4     1
5     6     4     ar
6     7     6     ar
7     8     7     1
8     9     8     1
9     10    8     1
10    11    10    1
11    12    11    ar
12    13    12    1
13    14    12    ar
14    15    14    1
15    16    14    ar
16    17    16    1
17    18    16    ar
18    19    11    ar
19    19    18    ar
20    20    19    1
21    21    1     ar
22    21    7     ar
23    21    20    1
24    22    6     1
25    23    22    1
26    24    22    1
27    25    22    1
28    26    10    2
29    27    20    1
30    28    27    1
31    29    27    1
32    30    29    1
33    31    29    1
34    32    27    1
35    32    29    1
36    33    32    1
37    34    32    1
@<TRIPOS>SUBSTRUCTURE
1   LIG    1    
 
########## Name        : 1VRT.lig
########## Description : AM1BCC_CHARGES =  -0.0002 ORIGINAL_CHARGES =  -0.0000

@<TRIPOS>MOLECULE
1VRT.lig
34    37    1     0     0    
SMALL
USER_CHARGES
@<TRIPOS>ATOM
1     N1       4.0540  -36.9310   22.2210 N.ar    1  LIG  -0.6650  -0.6200 
2     C1       4.9660  -36.2380   22.9390 C.ar    1  LIG   0.3947   0.1600 
3     H1       6.0082  -36.2811   22.6707 H       1  LIG   0.0281   0.1500 
4     C2       4.6240  -35.4500   24.0360 C.ar    1  LIG  -0.2334  -0.1500 
5     H2       5.3884  -34.9151   24.5740 H       1  LIG   0.1480   0.1500 
6     C3       3.3050  -35.3690   24.4150 C.ar    1  LIG  -0.0698  -0.1435 
7     C4       2.3460  -36.0770   23.6860 C.ar    1  LIG  -0.0398   0.1170 
8     N2       0.9890  -36.0280   24.1030 N.am    1  LIG  -0.4596  -0.5470 
9     H3       0.7643  -35.9928   25.0860 H       1  LIG   0.3311   0.3700 
10    C5      -0.1450  -36.0180   23.4080 C.2     1  LIG   0.7361   0.5438 
11    C6      -0.1190  -36.0770   21.8860 C.ar    1  LIG  -0.2550   0.0862 
12    C7      -1.1230  -35.3990   21.1890 C.ar    1  LIG  -0.0321  -0.1500 
13    H4      -1.7552  -34.6955   21.7041 H       1  LIG   0.1623   0.1500 
14    C8      -1.2960  -35.6300   19.8690 C.ar    1  LIG  -0.2723  -0.1500 
15    H5      -2.0662  -35.1073   19.3273 H       1  LIG   0.1522   0.1500 
16    C9      -0.4670  -36.5450   19.2400 C.ar    1  LIG   0.4373   0.1600 
17    H6      -0.5947  -36.7554   18.1915 H       1  LIG   0.0280   0.1500 
18    N3       0.5220  -37.2120   19.8740 N.ar    1  LIG  -0.6893  -0.6200 
19    C10      0.7040  -36.9790   21.1800 C.ar    1  LIG   0.6480   0.4100 
20    N4       1.7670  -37.6730   21.8260 N.pl3   1  LIG  -0.6924  -0.3690 
21    C11      2.7540  -36.8570   22.5840 C.ar    1  LIG   0.5805   0.4100 
22    C12      2.9040  -34.5090   25.6010 C.3     1  LIG  -0.0620   0.1435 
23    H7       2.2235  -33.7630   25.2820 H       1  LIG   0.0570   0.0000 
24    H8       2.4436  -35.1154   26.3371 H       1  LIG   0.0495   0.0000 
25    H9       3.7654  -34.0491   26.0108 H       1  LIG   0.0519   0.0000 
26    O1      -1.2400  -35.9060   23.9770 O.2     1  LIG  -0.6361  -0.5700 
27    C13      2.3440  -38.7570   21.0360 C.3     1  LIG   0.1354   0.0690 
28    H10      3.1238  -38.3754   20.4296 H       1  LIG   0.0981   0.1000 
29    C14      2.9380  -39.8900   21.8010 C.3     1  LIG  -0.1181  -0.2000 
30    H11      3.8890  -40.1268   21.3997 H       1  LIG   0.0732   0.1000 
31    H12      3.0430  -39.6129   22.8177 H       1  LIG   0.0789   0.1000 
32    C15      1.6390  -40.0610   21.0880 C.3     1  LIG  -0.1196  -0.2000 
33    H13      0.6832  -39.9283   21.5242 H       1  LIG   0.0807   0.1000 
34    H14      1.5292  -40.4423   20.1061 H       1  LIG   0.0733   0.1000 
@<TRIPOS>BOND
1     2     1     ar
2     3     2     1
3     4     2     ar
4     5     4     1
5     6     4     ar
6     7     6     ar
7     8     7     1
8     9     8     1
9     10    8     1
10    11    10    1
11    12    11    ar
12    13    12    1
13    14    12    ar
14    15    14    1
15    16    14    ar
16    17    16    1
17    18    16    ar
18    19    11    ar
19    19    18    ar
20    20    19    1
21    21    1     ar
22    21    7     ar
23    21    20    1
24    22    6     1
25    23    22    1
26    24    22    1
27    25    22    1
28    26    10    2
29    27    20    1
30    28    27    1
31    29    27    1
32    30    29    1
33    31    29    1
34    32    27    1
35    32    29    1
36    33    32    1
37    34    32    1
@<TRIPOS>SUBSTRUCTURE
1   LIG    1    
 
########## Name        : 1VRT.lig
########## Description : AM1BCC_CHARGES =  -0.0002 ORIGINAL_CHARGES =  -0.0000

@<TRIPOS>MOLECULE
1VRT.lig
34    37    1     0     0    
SMALL
USER_CHARGES
@<TRIPOS>ATOM
1     N1       4.0540  -36.9310   22.2210 N.ar    1  LIG  -0.6650  -0.6200 
2     C1       4.9660  -36.2380   22.9390 C.ar    1  LIG   0.3947   0.1600 
3     H1       6.0082  -36.2811   22.6707 H       1  LIG   0.0281   0.1500 
4     C2       4.6240  -35.4500   24.0360 C.ar    1  LIG  -0.2334  -0.1500 
5     H2       5.3884  -34.9151   24.5740 H       1  LIG   0.1480   0.1500 
6     C3       3.3050  -35.3690   24.4150 C.ar    1  LIG  -0.0698  -0.1435 
7     C4       2.3460  -36.0770   23.6860 C.ar    1  LIG  -0.0398   0.1170 
8     N2       0.9890  -36.0280   24.1030 N.am    1  LIG  -0.4596  -0.5470 
9     H3       0.7643  -35.9928   25.0860 H       1  LIG   0.3311   0.3700 
10    C5      -0.1450  -36.0180   23.4080 C.2     1  LIG   0.7361   0.5438 
11    C6      -0.1190  -36.0770   21.8860 C.ar    1  LIG  -0.2550   0.0862 
12    C7      -1.1230  -35.3990   21.1890 C.ar    1  LIG  -0.0321  -0.1500 
13    H4      -1.7552  -34.6955   21.7041 H       1  LIG   0.1623   0.1500 
14    C8      -1.2960  -35.6300   19.8690 C.ar    1  LIG  -0.2723  -0.1500 
15    H5      -2.0662  -35.1073   19.3273 H       1  LIG   0.1522   0.1500 
16    C9      -0.4670  -36.5450   19.2400 C.ar    1  LIG   0.4373   0.1600 
17    H6      -0.5947  -36.7554   18.1915 H       1  LIG   0.0280   0.1500 
18    N3       0.5220  -37.2120   19.8740 N.ar    1  LIG  -0.6893  -0.6200 
19    C10      0.7040  -36.9790   21.1800 C.ar    1  LIG   0.6480   0.4100 
20    N4       1.7670  -37.6730   21.8260 N.pl3   1  LIG  -0.6924  -0.3690 
21    C11      2.7540  -36.8570   22.5840 C.ar    1  LIG   0.5805   0.4100 
22    C12      2.9040  -34.5090   25.6010 C.3     1  LIG  -0.0620   0.1435 
23    H7       2.2235  -33.7630   25.2820 H       1  LIG   0.0570   0.0000 
24    H8       2.4436  -35.1154   26.3371 H       1  LIG   0.0495   0.0000 
25    H9       3.7654  -34.0491   26.0108 H       1  LIG   0.0519   0.0000 
26    O1      -1.2400  -35.9060   23.9770 O.2     1  LIG  -0.6361  -0.5700 
27    C13      2.3440  -38.7570   21.0360 C.3     1  LIG   0.1354   0.0690 
28    H10      3.1238  -38.3754   20.4296 H       1  LIG   0.0981   0.1000 
29    C14      2.9380  -39.8900   21.8010 C.3     1  LIG  -0.1181  -0.2000 
30    H11      3.8890  -40.1268   21.3997 H       1  LIG   0.0732   0.1000 
31    H12      3.0430  -39.6129   22.8177 H       1  LIG   0.0789   0.1000 
32    C15      1.6390  -40.0610   21.0880 C.3     1  LIG  -0.1196  -0.2000 
33    H13      0.6832  -39.9283   21.5242 H       1  LIG   0.0807   0.1000 
34    H14      1.5292  -40.4423   20.1061 H       1  LIG   0.0733   0.1000 
@<TRIPOS>BOND
1     2     1     ar
2     3     2     1
3     4     2     ar
4     5     4     1
5     6     4     ar
6     7     6     ar
7     8     7     1
8     9     8     1
9     10    8     1
10    11    10    1
11    12    11    ar
12    13    12    1
13    14    12    ar
14    15    14    1
15    16    14    ar
16    17    16    1
17    18    16    ar
18    19    11    ar
19    19    18    ar
20    20    19    1
21    21    1     ar
22    21    7     ar
23    21    20    1
24    22    6     1
25    23    22    1
26    24    22    1
27    25    22    1
28    26    10    2
29    27    20    1
30    28    27    1
31    29    27    1
32    30    29    1
33    31    29    1
34    32    27    1
35    32    29    1
36    33    32    1
37    34    32    1
@<TRIPOS>SUBSTRUCTURE
1   LIG    1    
 
########## Name        : 1VRT.lig
########## Description : AM1BCC_CHARGES =  -0.0002 ORIGINAL_CHARGES =  -0.0000

@<TRIPOS>MOLECULE
1VRT.lig
34    37    1     0     0    
SMALL
USER_CHARGES
@<TRIPOS>ATOM
1     N1       4.0540  -36.9310   22.2210 N.ar    1  LIG  -0.6650  -0.6200 
2     C1       4.9660  -36.2380   22.9390 C.ar    1  LIG   0.3947   0.1600 
3     H1       6.0082  -36.2811   22.6707 H       1  LIG   0.0281   0.1500 
4     C2       4.6240  -35.4500   24.0360 C.ar    1  LIG  -0.2334  -0.1500 
5     H2       5.3884  -34.9151   24.5740 H       1  LIG   0.1480   0.1500 
6     C3       3.3050  -35.3690   24.4150 C.ar    1  LIG  -0.0698  -0.1435 
7     C4       2.3460  -36.0770   23.6860 C.ar    1  LIG  -0.0398   0.1170 
8     N2       0.9890  -36.0280   24.1030 N.am    1  LIG  -0.4596  -0.5470 
9     H3       0.7643  -35.9928   25.0860 H       1  LIG   0.3311   0.3700 
10    C5      -0.1450  -36.0180   23.4080 C.2     1  LIG   0.7361   0.5438 
11    C6      -0.1190  -36.0770   21.8860 C.ar    1  LIG  -0.2550   0.0862 
12    C7      -1.1230  -35.3990   21.1890 C.ar    1  LIG  -0.0321  -0.1500 
13    H4      -1.7552  -34.6955   21.7041 H       1  LIG   0.1623   0.1500 
14    C8      -1.2960  -35.6300   19.8690 C.ar    1  LIG  -0.2723  -0.1500 
15    H5      -2.0662  -35.1073   19.3273 H       1  LIG   0.1522   0.1500 
16    C9      -0.4670  -36.5450   19.2400 C.ar    1  LIG   0.4373   0.1600 
17    H6      -0.5947  -36.7554   18.1915 H       1  LIG   0.0280   0.1500 
18    N3       0.5220  -37.2120   19.8740 N.ar    1  LIG  -0.6893  -0.6200 
19    C10      0.7040  -36.9790   21.1800 C.ar    1  LIG   0.6480   0.4100 
20    N4       1.7670  -37.6730   21.8260 N.pl3   1  LIG  -0.6924  -0.3690 
21    C11      2.7540  -36.8570   22.5840 C.ar    1  LIG   0.5805   0.4100 
22    C12      2.9040  -34.5090   25.6010 C.3     1  LIG  -0.0620   0.1435 
23    H7       2.2235  -33.7630   25.2820 H       1  LIG   0.0570   0.0000 
24    H8       2.4436  -35.1154   26.3371 H       1  LIG   0.0495   0.0000 
25    H9       3.7654  -34.0491   26.0108 H       1  LIG   0.0519   0.0000 
26    O1      -1.2400  -35.9060   23.9770 O.2     1  LIG  -0.6361  -0.5700 
27    C13      2.3440  -38.7570   21.0360 C.3     1  LIG   0.1354   0.0690 
28    H10      3.1238  -38.3754   20.4296 H       1  LIG   0.0981   0.1000 
29    C14      2.9380  -39.8900   21.8010 C.3     1  LIG  -0.1181  -0.2000 
30    H11      3.8890  -40.1268   21.3997 H       1  LIG   0.0732   0.1000 
31    H12      3.0430  -39.6129   22.8177 H       1  LIG   0.0789   0.1000 
32    C15      1.6390  -40.0610   21.0880 C.3     1  LIG  -0.1196  -0.2000 
33    H13      0.6832  -39.9283   21.5242 H       1  LIG   0.0807   0.1000 
34    H14      1.5292  -40.4423   20.1061 H       1  LIG   0.0733   0.1000 
@<TRIPOS>BOND
1     2     1     ar
2     3     2     1
3     4     2     ar
4     5     4     1
5     6     4     ar
6     7     6     ar
7     8     7     1
8     9     8     1
9     10    8     1
10    11    10    1
11    12    11    ar
12    13    12    1
13    14    12    ar
14    15    14    1
15    16    14    ar
16    17    16    1
17    18    16    ar
18    19    11    ar
19    19    18    ar
20    20    19    1
21    21    1     ar
22    21    7     ar
23    21    20    1
24    22    6     1
25    23    22    1
26    24    22    1
27    25    22    1
28    26    10    2
29    27    20    1
30    28    27    1
31    29    27    1
32    30    29    1
33    31    29    1
34    32    27    1
35    32    29    1
36    33    32    1
37    34    32    1
@<TRIPOS>SUBSTRUCTURE
1   LIG    1    
 
########## Name        : 1VRT.lig
########## Description : AM1BCC_CHARGES =  -0.0002 ORIGINAL_CHARGES =  -0.0000

@<TRIPOS>MOLECULE
1VRT.lig
34    37    1     0     0    
SMALL
USER_CHARGES
@<TRIPOS>ATOM
1     N1       4.0540  -36.9310   22.2210 N.ar    1  LIG  -0.6650  -0.6200 
2     C1       4.9660  -36.2380   22.9390 C.ar    1  LIG   0.3947   0.1600 
3     H1       6.0082  -36.2811   22.6707 H       1  LIG   0.0281   0.1500 
4     C2       4.6240  -35.4500   24.0360 C.ar    1  LIG  -0.2334  -0.1500 
5     H2       5.3884  -34.9151   24.5740 H       1  LIG   0.1480   0.1500 
6     C3       3.3050  -35.3690   24.4150 C.ar    1  LIG  -0.0698  -0.1435 
7     C4       2.3460  -36.0770   23.6860 C.ar    1  LIG  -0.0398   0.1170 
8     N2       0.9890  -36.0280   24.1030 N.am    1  LIG  -0.4596  -0.5470 
9     H3       0.7643  -35.9928   25.0860 H       1  LIG   0.3311   0.3700 
10    C5      -0.1450  -36.0180   23.4080 C.2     1  LIG   0.7361   0.5438 
11    C6      -0.1190  -36.0770   21.8860 C.ar    1  LIG  -0.2550   0.0862 
12    C7      -1.1230  -35.3990   21.1890 C.ar    1  LIG  -0.0321  -0.1500 
13    H4      -1.7552  -34.6955   21.7041 H       1  LIG   0.1623   0.1500 
14    C8      -1.2960  -35.6300   19.8690 C.ar    1  LIG  -0.2723  -0.1500 
15    H5      -2.0662  -35.1073   19.3273 H       1  LIG   0.1522   0.1500 
16    C9      -0.4670  -36.5450   19.2400 C.ar    1  LIG   0.4373   0.1600 
17    H6      -0.5947  -36.7554   18.1915 H       1  LIG   0.0280   0.1500 
18    N3       0.5220  -37.2120   19.8740 N.ar    1  LIG  -0.6893  -0.6200 
19    C10      0.7040  -36.9790   21.1800 C.ar    1  LIG   0.6480   0.4100 
20    N4       1.7670  -37.6730   21.8260 N.pl3   1  LIG  -0.6924  -0.3690 
21    C11      2.7540  -36.8570   22.5840 C.ar    1  LIG   0.5805   0.4100 
22    C12      2.9040  -34.5090   25.6010 C.3     1  LIG  -0.0620   0.1435 
23    H7       2.2235  -33.7630   25.2820 H       1  LIG   0.0570   0.0000 
24    H8       2.4436  -35.1154   26.3371 H       1  LIG   0.0495   0.0000 
25    H9       3.7654  -34.0491   26.0108 H       1  LIG   0.0519   0.0000 
26    O1      -1.2400  -35.9060   23.9770 O.2     1  LIG  -0.6361  -0.5700 
27    C13      2.3440  -38.7570   21.0360 C.3     1  LIG   0.1354   0.0690 
28    H10      3.1238  -38.3754   20.4296 H       1  LIG   0.0981   0.1000 
29    C14      2.9380  -39.8900   21.8010 C.3     1  LIG  -0.1181  -0.2000 
30    H11      3.8890  -40.1268   21.3997 H       1  LIG   0.0732   0.1000 
31    H12      3.0430  -39.6129   22.8177 H       1  LIG   0.0789   0.1000 
32    C15      1.6390  -40.0610   21.0880 C.3     1  LIG  -0.1196  -0.2000 
33    H13      0.6832  -39.9283   21.5242 H       1  LIG   0.0807   0.1000 
34    H14      1.5292  -40.4423   20.1061 H       1  LIG   0.0733   0.1000 
@<TRIPOS>BOND
1     2     1     ar
2     3     2     1
3     4     2     ar
4     5     4     1
5     6     4     ar
6     7     6     ar
7     8     7     1
8     9     8     1
9     10    8     1
10    11    10    1
11    12    11    ar
12    13    12    1
13    14    12    ar
14    15    14    1
15    16    14    ar
16    17    16    1
17    18    16    ar
18    19    11    ar
19    19    18    ar
20    20    19    1
21    21    1     ar
22    21    7     ar
23    21    20    1
24    22    6     1
25    23    22    1
26    24    22    1
27    25    22    1
28    26    10    2
29    27    20    1
30    28    27    1
31    29    27    1
32    30    29    1
33    31    29    1
34    32    27    1
35    32    29    1
36    33    32    1
37    34    32    1
@<TRIPOS>SUBSTRUCTURE
1   LIG    1    
 
########## Name        : 1VRT.lig
########## Description : AM1BCC_CHARGES =  -0.0002 ORIGINAL_CHARGES =  -0.0000

@<TRIPOS>MOLECULE
1VRT.lig
34    37    1     0     0    
SMALL
USER_CHARGES
@<TRIPOS>ATOM
1     N1       4.0540  -36.9310   22.2210 N.ar    1  LIG  -0.6650  -0.6200 
2     C1       4.9660  -36.2380   22.9390 C.ar    1  LIG   0.3947   0.1600 
3     H1       6.0082  -36.2811   22.6707 H       1  LIG   0.0281   0.1500 
4     C2       4.6240  -35.4500   24.0360 C.ar    1  LIG  -0.2334  -0.1500 
5     H2       5.3884  -34.9151   24.5740 H       1  LIG   0.1480   0.1500 
6     C3       3.3050  -35.3690   24.4150 C.ar    1  LIG  -0.0698  -0.1435 
7     C4       2.3460  -36.0770   23.6860 C.ar    1  LIG  -0.0398   0.1170 
8     N2       0.9890  -36.0280   24.1030 N.am    1  LIG  -0.4596  -0.5470 
9     H3       0.7643  -35.9928   25.0860 H       1  LIG   0.3311   0.3700 
10    C5      -0.1450  -36.0180   23.4080 C.2     1  LIG   0.7361   0.5438 
11    C6      -0.1190  -36.0770   21.8860 C.ar    1  LIG  -0.2550   0.0862 
12    C7      -1.1230  -35.3990   21.1890 C.ar    1  LIG  -0.0321  -0.1500 
13    H4      -1.7552  -34.6955   21.7041 H       1  LIG   0.1623   0.1500 
14    C8      -1.2960  -35.6300   19.8690 C.ar    1  LIG  -0.2723  -0.1500 
15    H5      -2.0662  -35.1073   19.3273 H       1  LIG   0.1522   0.1500 
16    C9      -0.4670  -36.5450   19.2400 C.ar    1  LIG   0.4373   0.1600 
17    H6      -0.5947  -36.7554   18.1915 H       1  LIG   0.0280   0.1500 
18    N3       0.5220  -37.2120   19.8740 N.ar    1  LIG  -0.6893  -0.6200 
19    C10      0.7040  -36.9790   21.1800 C.ar    1  LIG   0.6480   0.4100 
20    N4       1.7670  -37.6730   21.8260 N.pl3   1  LIG  -0.6924  -0.3690 
21    C11      2.7540  -36.8570   22.5840 C.ar    1  LIG   0.5805   0.4100 
22    C12      2.9040  -34.5090   25.6010 C.3     1  LIG  -0.0620   0.1435 
23    H7       2.2235  -33.7630   25.2820 H       1  LIG   0.0570   0.0000 
24    H8       2.4436  -35.1154   26.3371 H       1  LIG   0.0495   0.0000 
25    H9       3.7654  -34.0491   26.0108 H       1  LIG   0.0519   0.0000 
26    O1      -1.2400  -35.9060   23.9770 O.2     1  LIG  -0.6361  -0.5700 
27    C13      2.3440  -38.7570   21.0360 C.3     1  LIG   0.1354   0.0690 
28    H10      3.1238  -38.3754   20.4296 H       1  LIG   0.0981   0.1000 
29    C14      2.9380  -39.8900   21.8010 C.3     1  LIG  -0.1181  -0.2000 
30    H11      3.8890  -40.1268   21.3997 H       1  LIG   0.0732   0.1000 
31    H12      3.0430  -39.6129   22.8177 H       1  LIG   0.0789   0.1000 
32    C15      1.6390  -40.0610   21.0880 C.3     1  LIG  -0.1196  -0.2000 
33    H13      0.6832  -39.9283   21.5242 H       1  LIG   0.0807   0.1000 
34    H14      1.5292  -40.4423   20.1061 H       1  LIG   0.0733   0.1000 
@<TRIPOS>BOND
1     2     1     ar
2     3     2     1
3     4     2     ar
4     5     4     1
5     6     4     ar
6     7     6     ar
7     8     7     1
8     9     8     1
9     10    8     1
10    11    10    1
11    12    11    ar
12    13    12    1
13    14    12    ar
14    15    14    1
15    16    14    ar
16    17    16    1
17    18    16    ar
18    19    11    ar
19    19    18    ar
20    20    19    1
21    21    1     ar
22    21    7     ar
23    21    20    1
24    22    6     1
25    23    22    1
26    24    22    1
27    25    22    1
28    26    10    2
29    27    20    1
30    28    27    1
31    29    27    1
32    30    29    1
33    31    29    1
34    32    27    1
35    32    29    1
36    33    32    1
37    34    32    1
@<TRIPOS>SUBSTRUCTURE
1   LIG    1    
 
########## Name        : 1VRT.lig
########## Description : AM1BCC_CHARGES =  -0.0002 ORIGINAL_CHARGES =  -0.0000

@<TRIPOS>MOLECULE
1VRT.lig
34    37    1     0     0    
SMALL
USER_CHARGES
@<TRIPOS>ATOM
1     N1       4.0540  -36.9310   22.2210 N.ar    1  LIG  -0.6650  -0.6200 
2     C1       4.9660  -36.2380   22.9390 C.ar    1  LIG   0.3947   0.1600 
3     H1       6.0082  -36.2811   22.6707 H       1  LIG   0.0281   0.1500 
4     C2       4.6240  -35.4500   24.0360 C.ar    1  LIG  -0.2334  -0.1500 
5     H2       5.3884  -34.9151   24.5740 H       1  LIG   0.1480   0.1500 
6     C3       3.3050  -35.3690   24.4150 C.ar    1  LIG  -0.0698  -0.1435 
7     C4       2.3460  -36.0770   23.6860 C.ar    1  LIG  -0.0398   0.1170 
8     N2       0.9890  -36.0280   24.1030 N.am    1  LIG  -0.4596  -0.5470 
9     H3       0.7643  -35.9928   25.0860 H       1  LIG   0.3311   0.3700 
10    C5      -0.1450  -36.0180   23.4080 C.2     1  LIG   0.7361   0.5438 
11    C6      -0.1190  -36.0770   21.8860 C.ar    1  LIG  -0.2550   0.0862 
12    C7      -1.1230  -35.3990   21.1890 C.ar    1  LIG  -0.0321  -0.1500 
13    H4      -1.7552  -34.6955   21.7041 H       1  LIG   0.1623   0.1500 
14    C8      -1.2960  -35.6300   19.8690 C.ar    1  LIG  -0.2723  -0.1500 
15    H5      -2.0662  -35.1073   19.3273 H       1  LIG   0.1522   0.1500 
16    C9      -0.4670  -36.5450   19.2400 C.ar    1  LIG   0.4373   0.1600 
17    H6      -0.5947  -36.7554   18.1915 H       1  LIG   0.0280   0.1500 
18    N3       0.5220  -37.2120   19.8740 N.ar    1  LIG  -0.6893  -0.6200 
19    C10      0.7040  -36.9790   21.1800 C.ar    1  LIG   0.6480   0.4100 
20    N4       1.7670  -37.6730   21.8260 N.pl3   1  LIG  -0.6924  -0.3690 
21    C11      2.7540  -36.8570   22.5840 C.ar    1  LIG   0.5805   0.4100 
22    C12      2.9040  -34.5090   25.6010 C.3     1  LIG  -0.0620   0.1435 
23    H7       2.2235  -33.7630   25.2820 H       1  LIG   0.0570   0.0000 
24    H8       2.4436  -35.1154   26.3371 H       1  LIG   0.0495   0.0000 
25    H9       3.7654  -34.0491   26.0108 H       1  LIG   0.0519   0.0000 
26    O1      -1.2400  -35.9060   23.9770 O.2     1  LIG  -0.6361  -0.5700 
27    C13      2.3440  -38.7570   21.0360 C.3     1  LIG   0.1354   0.0690 
28    H10      3.1238  -38.3754   20.4296 H       1  LIG   0.0981   0.1000 
29    C14      2.9380  -39.8900   21.8010 C.3     1  LIG  -0.1181  -0.2000 
30    H11      3.8890  -40.1268   21.3997 H       1  LIG   0.0732   0.1000 
31    H12      3.0430  -39.6129   22.8177 H       1  LIG   0.0789   0.1000 
32    C15      1.6390  -40.0610   21.0880 C.3     1  LIG  -0.1196  -0.2000 
33    H13      0.6832  -39.9283   21.5242 H       1  LIG   0.0807   0.1000 
34    H14      1.5292  -40.4423   20.1061 H       1  LIG   0.0733   0.1000 
@<TRIPOS>BOND
1     2     1     ar
2     3     2     1
3     4     2     ar
4     5     4     1
5     6     4     ar
6     7     6     ar
7     8     7     1
8     9     8     1
9     10    8     1
10    11    10    1
11    12    11    ar
12    13    12    1
13    14    12    ar
14    15    14    1
15    16    14    ar
16    17    16    1
17    18    16    ar
18    19    11    ar
19    19    18    ar
20    20    19    1
21    21    1     ar
22    21    7     ar
23    21    20    1
24    22    6     1
25    23    22    1
26    24    22    1
27    25    22    1
28    26    10    2
29    27    20    1
30    28    27    1
31    29    27    1
32    30    29    1
33    31    29    1
34    32    27    1
35    32    29    1
36    33    32    1
37    34    32    1
@<TRIPOS>SUBSTRUCTURE
1   LIG    1    
 
########## Name        : 1VRT.lig
########## Description : AM1BCC_CHARGES =  -0.0002 ORIGINAL_CHARGES =  -0.0000

@<TRIPOS>MOLECULE
1VRT.lig
34    37    1     0     0    
SMALL
USER_CHARGES
@<TRIPOS>ATOM
1     N1       4.0540  -36.9310   22.2210 N.ar    1  LIG  -0.6650  -0.6200 
2     C1       4.9660  -36.2380   22.9390 C.ar    1  LIG   0.3947   0.1600 
3     H1       6.0082  -36.2811   22.6707 H       1  LIG   0.0281   0.1500 
4     C2       4.6240  -35.4500   24.0360 C.ar    1  LIG  -0.2334  -0.1500 
5     H2       5.3884  -34.9151   24.5740 H       1  LIG   0.1480   0.1500 
6     C3       3.3050  -35.3690   24.4150 C.ar    1  LIG  -0.0698  -0.1435 
7     C4       2.3460  -36.0770   23.6860 C.ar    1  LIG  -0.0398   0.1170 
8     N2       0.9890  -36.0280   24.1030 N.am    1  LIG  -0.4596  -0.5470 
9     H3       0.7643  -35.9928   25.0860 H       1  LIG   0.3311   0.3700 
10    C5      -0.1450  -36.0180   23.4080 C.2     1  LIG   0.7361   0.5438 
11    C6      -0.1190  -36.0770   21.8860 C.ar    1  LIG  -0.2550   0.0862 
12    C7      -1.1230  -35.3990   21.1890 C.ar    1  LIG  -0.0321  -0.1500 
13    H4      -1.7552  -34.6955   21.7041 H       1  LIG   0.1623   0.1500 
14    C8      -1.2960  -35.6300   19.8690 C.ar    1  LIG  -0.2723  -0.1500 
15    H5      -2.0662  -35.1073   19.3273 H       1  LIG   0.1522   0.1500 
16    C9      -0.4670  -36.5450   19.2400 C.ar    1  LIG   0.4373   0.1600 
17    H6      -0.5947  -36.7554   18.1915 H       1  LIG   0.0280   0.1500 
18    N3       0.5220  -37.2120   19.8740 N.ar    1  LIG  -0.6893  -0.6200 
19    C10      0.7040  -36.9790   21.1800 C.ar    1  LIG   0.6480   0.4100 
20    N4       1.7670  -37.6730   21.8260 N.pl3   1  LIG  -0.6924  -0.3690 
21    C11      2.7540  -36.8570   22.5840 C.ar    1  LIG   0.5805   0.4100 
22    C12      2.9040  -34.5090   25.6010 C.3     1  LIG  -0.0620   0.1435 
23    H7       2.2235  -33.7630   25.2820 H       1  LIG   0.0570   0.0000 
24    H8       2.4436  -35.1154   26.3371 H       1  LIG   0.0495   0.0000 
25    H9       3.7654  -34.0491   26.0108 H       1  LIG   0.0519   0.0000 
26    O1      -1.2400  -35.9060   23.9770 O.2     1  LIG  -0.6361  -0.5700 
27    C13      2.3440  -38.7570   21.0360 C.3     1  LIG   0.1354   0.0690 
28    H10      3.1238  -38.3754   20.4296 H       1  LIG   0.0981   0.1000 
29    C14      2.9380  -39.8900   21.8010 C.3     1  LIG  -0.1181  -0.2000 
30    H11      3.8890  -40.1268   21.3997 H       1  LIG   0.0732   0.1000 
31    H12      3.0430  -39.6129   22.8177 H       1  LIG   0.0789   0.1000 
32    C15      1.6390  -40.0610   21.0880 C.3     1  LIG  -0.1196  -0.2000 
33    H13      0.6832  -39.9283   21.5242 H       1  LIG   0.0807   0.1000 
34    H14      1.5292  -40.4423   20.1061 H       1  LIG   0.0733   0.1000 
@<TRIPOS>BOND
1     2     1     ar
2     3     2     1
3     4     2     ar
4     5     4     1
5     6     4     ar
6     7     6     ar
7     8     7     1
8     9     8     1
9     10    8     1
10    11    10    1
11    12    11    ar
12    13    12    1
13    14    12    ar
14    15    14    1
15    16    14    ar
16    17    16    1
17    18    16    ar
18    19    11    ar
19    19    18    ar
20    20    19    1
21    21    1     ar
22    21    7     ar
23    21    20    1
24    22    6     1
25    23    22    1
26    24    22    1
27    25    22    1
28    26    10    2
29    27    20    1
30    28    27    1
31    29    27    1
32    30    29    1
33    31    29    1
34    32    27    1
35    32    29    1
36    33    32    1
37    34    32    1
@<TRIPOS>SUBSTRUCTURE
1   LIG    1    
 
########## Name        : 1VRT.lig
########## Description : AM1BCC_CHARGES =  -0.0002 ORIGINAL_CHARGES =  -0.0000

@<TRIPOS>MOLECULE
1VRT.lig
34    37    1     0     0    
SMALL
USER_CHARGES
@<TRIPOS>ATOM
1     N1       4.0540  -36.9310   22.2210 N.ar    1  LIG  -0.6650  -0.6200 
2     C1       4.9660  -36.2380   22.9390 C.ar    1  LIG   0.3947   0.1600 
3     H1       6.0082  -36.2811   22.6707 H       1  LIG   0.0281   0.1500 
4     C2       4.6240  -35.4500   24.0360 C.ar    1  LIG  -0.2334  -0.1500 
5     H2       5.3884  -34.9151   24.5740 H       1  LIG   0.1480   0.1500 
6     C3       3.3050  -35.3690   24.4150 C.ar    1  LIG  -0.0698  -0.1435 
7     C4       2.3460  -36.0770   23.6860 C.ar    1  LIG  -0.0398   0.1170 
8     N2       0.9890  -36.0280   24.1030 N.am    1  LIG  -0.4596  -0.5470 
9     H3       0.7643  -35.9928   25.0860 H       1  LIG   0.3311   0.3700 
10    C5      -0.1450  -36.0180   23.4080 C.2     1  LIG   0.7361   0.5438 
11    C6      -0.1190  -36.0770   21.8860 C.ar    1  LIG  -0.2550   0.0862 
12    C7      -1.1230  -35.3990   21.1890 C.ar    1  LIG  -0.0321  -0.1500 
13    H4      -1.7552  -34.6955   21.7041 H       1  LIG   0.1623   0.1500 
14    C8      -1.2960  -35.6300   19.8690 C.ar    1  LIG  -0.2723  -0.1500 
15    H5      -2.0662  -35.1073   19.3273 H       1  LIG   0.1522   0.1500 
16    C9      -0.4670  -36.5450   19.2400 C.ar    1  LIG   0.4373   0.1600 
17    H6      -0.5947  -36.7554   18.1915 H       1  LIG   0.0280   0.1500 
18    N3       0.5220  -37.2120   19.8740 N.ar    1  LIG  -0.6893  -0.6200 
19    C10      0.7040  -36.9790   21.1800 C.ar    1  LIG   0.6480   0.4100 
20    N4       1.7670  -37.6730   21.8260 N.pl3   1  LIG  -0.6924  -0.3690 
21    C11      2.7540  -36.8570   22.5840 C.ar    1  LIG   0.5805   0.4100 
22    C12      2.9040  -34.5090   25.6010 C.3     1  LIG  -0.0620   0.1435 
23    H7       2.2235  -33.7630   25.2820 H       1  LIG   0.0570   0.0000 
24    H8       2.4436  -35.1154   26.3371 H       1  LIG   0.0495   0.0000 
25    H9       3.7654  -34.0491   26.0108 H       1  LIG   0.0519   0.0000 
26    O1      -1.2400  -35.9060   23.9770 O.2     1  LIG  -0.6361  -0.5700 
27    C13      2.3440  -38.7570   21.0360 C.3     1  LIG   0.1354   0.0690 
28    H10      3.1238  -38.3754   20.4296 H       1  LIG   0.0981   0.1000 
29    C14      2.9380  -39.8900   21.8010 C.3     1  LIG  -0.1181  -0.2000 
30    H11      3.8890  -40.1268   21.3997 H       1  LIG   0.0732   0.1000 
31    H12      3.0430  -39.6129   22.8177 H       1  LIG   0.0789   0.1000 
32    C15      1.6390  -40.0610   21.0880 C.3     1  LIG  -0.1196  -0.2000 
33    H13      0.6832  -39.9283   21.5242 H       1  LIG   0.0807   0.1000 
34    H14      1.5292  -40.4423   20.1061 H       1  LIG   0.0733   0.1000 
@<TRIPOS>BOND
1     2     1     ar
2     3     2     1
3     4     2     ar
4     5     4     1
5     6     4     ar
6     7     6     ar
7     8     7     1
8     9     8     1
9     10    8     1
10    11    10    1
11    12    11    ar
12    13    12    1
13    14    12    ar
14    15    14    1
15    16    14    ar
16    17    16    1
17    18    16    ar
18    19    11    ar
19    19    18    ar
20    20    19    1
21    21    1     ar
22    21    7     ar
23    21    20    1
24    22    6     1
25    23    22    1
26    24    22    1
27    25    22    1
28    26    10    2
29    27    20    1
30    28    27    1
31    29    27    1
32    30    29    1
33    31    29    1
34    32    27    1
35    32    29    1
36    33    32    1
37    34    32    1
@<TRIPOS>SUBSTRUCTURE
1   LIG    1    
 
########## Name        : 1VRT.lig
########## Description : AM1BCC_CHARGES =  -0.0002 ORIGINAL_CHARGES =  -0.0000

@<TRIPOS>MOLECULE
1VRT.lig
34    37    1     0     0    
SMALL
USER_CHARGES
@<TRIPOS>ATOM
1     N1       4.0540  -36.9310   22.2210 N.ar    1  LIG  -0.6650  -0.6200 
2     C1       4.9660  -36.2380   22.9390 C.ar    1  LIG   0.3947   0.1600 
3     H1       6.0082  -36.2811   22.6707 H       1  LIG   0.0281   0.1500 
4     C2       4.6240  -35.4500   24.0360 C.ar    1  LIG  -0.2334  -0.1500 
5     H2       5.3884  -34.9151   24.5740 H       1  LIG   0.1480   0.1500 
6     C3       3.3050  -35.3690   24.4150 C.ar    1  LIG  -0.0698  -0.1435 
7     C4       2.3460  -36.0770   23.6860 C.ar    1  LIG  -0.0398   0.1170 
8     N2       0.9890  -36.0280   24.1030 N.am    1  LIG  -0.4596  -0.5470 
9     H3       0.7643  -35.9928   25.0860 H       1  LIG   0.3311   0.3700 
10    C5      -0.1450  -36.0180   23.4080 C.2     1  LIG   0.7361   0.5438 
11    C6      -0.1190  -36.0770   21.8860 C.ar    1  LIG  -0.2550   0.0862 
12    C7      -1.1230  -35.3990   21.1890 C.ar    1  LIG  -0.0321  -0.1500 
13    H4      -1.7552  -34.6955   21.7041 H       1  LIG   0.1623   0.1500 
14    C8      -1.2960  -35.6300   19.8690 C.ar    1  LIG  -0.2723  -0.1500 
15    H5      -2.0662  -35.1073   19.3273 H       1  LIG   0.1522   0.1500 
16    C9      -0.4670  -36.5450   19.2400 C.ar    1  LIG   0.4373   0.1600 
17    H6      -0.5947  -36.7554   18.1915 H       1  LIG   0.0280   0.1500 
18    N3       0.5220  -37.2120   19.8740 N.ar    1  LIG  -0.6893  -0.6200 
19    C10      0.7040  -36.9790   21.1800 C.ar    1  LIG   0.6480   0.4100 
20    N4       1.7670  -37.6730   21.8260 N.pl3   1  LIG  -0.6924  -0.3690 
21    C11      2.7540  -36.8570   22.5840 C.ar    1  LIG   0.5805   0.4100 
22    C12      2.9040  -34.5090   25.6010 C.3     1  LIG  -0.0620   0.1435 
23    H7       2.2235  -33.7630   25.2820 H       1  LIG   0.0570   0.0000 
24    H8       2.4436  -35.1154   26.3371 H       1  LIG   0.0495   0.0000 
25    H9       3.7654  -34.0491   26.0108 H       1  LIG   0.0519   0.0000 
26    O1      -1.2400  -35.9060   23.9770 O.2     1  LIG  -0.6361  -0.5700 
27    C13      2.3440  -38.7570   21.0360 C.3     1  LIG   0.1354   0.0690 
28    H10      3.1238  -38.3754   20.4296 H       1  LIG   0.0981   0.1000 
29    C14      2.9380  -39.8900   21.8010 C.3     1  LIG  -0.1181  -0.2000 
30    H11      3.8890  -40.1268   21.3997 H       1  LIG   0.0732   0.1000 
31    H12      3.0430  -39.6129   22.8177 H       1  LIG   0.0789   0.1000 
32    C15      1.6390  -40.0610   21.0880 C.3     1  LIG  -0.1196  -0.2000 
33    H13      0.6832  -39.9283   21.5242 H       1  LIG   0.0807   0.1000 
34    H14      1.5292  -40.4423   20.1061 H       1  LIG   0.0733   0.1000 
@<TRIPOS>BOND
1     2     1     ar
2     3     2     1
3     4     2     ar
4     5     4     1
5     6     4     ar
6     7     6     ar
7     8     7     1
8     9     8     1
9     10    8     1
10    11    10    1
11    12    11    ar
12    13    12    1
13    14    12    ar
14    15    14    1
15    16    14    ar
16    17    16    1
17    18    16    ar
18    19    11    ar
19    19    18    ar
20    20    19    1
21    21    1     ar
22    21    7     ar
23    21    20    1
24    22    6     1
25    23    22    1
26    24    22    1
27    25    22    1
28    26    10    2
29    27    20    1
30    28    27    1
31    29    27    1
32    30    29    1
33    31    29    1
34    32    27    1
35    32    29    1
36    33    32    1
37    34    32    1
@<TRIPOS>SUBSTRUCTURE
1   LIG    1    
 
########## Name        : 1VRT.lig
########## Description : AM1BCC_CHARGES =  -0.0002 ORIGINAL_CHARGES =  -0.0000

@<TRIPOS>MOLECULE
1VRT.lig
34    37    1     0     0    
SMALL
USER_CHARGES
@<TRIPOS>ATOM
1     N1       4.0540  -36.9310   22.2210 N.ar    1  LIG  -0.6650  -0.6200 
2     C1       4.9660  -36.2380   22.9390 C.ar    1  LIG   0.3947   0.1600 
3     H1       6.0082  -36.2811   22.6707 H       1  LIG   0.0281   0.1500 
4     C2       4.6240  -35.4500   24.0360 C.ar    1  LIG  -0.2334  -0.1500 
5     H2       5.3884  -34.9151   24.5740 H       1  LIG   0.1480   0.1500 
6     C3       3.3050  -35.3690   24.4150 C.ar    1  LIG  -0.0698  -0.1435 
7     C4       2.3460  -36.0770   23.6860 C.ar    1  LIG  -0.0398   0.1170 
8     N2       0.9890  -36.0280   24.1030 N.am    1  LIG  -0.4596  -0.5470 
9     H3       0.7643  -35.9928   25.0860 H       1  LIG   0.3311   0.3700 
10    C5      -0.1450  -36.0180   23.4080 C.2     1  LIG   0.7361   0.5438 
11    C6      -0.1190  -36.0770   21.8860 C.ar    1  LIG  -0.2550   0.0862 
12    C7      -1.1230  -35.3990   21.1890 C.ar    1  LIG  -0.0321  -0.1500 
13    H4      -1.7552  -34.6955   21.7041 H       1  LIG   0.1623   0.1500 
14    C8      -1.2960  -35.6300   19.8690 C.ar    1  LIG  -0.2723  -0.1500 
15    H5      -2.0662  -35.1073   19.3273 H       1  LIG   0.1522   0.1500 
16    C9      -0.4670  -36.5450   19.2400 C.ar    1  LIG   0.4373   0.1600 
17    H6      -0.5947  -36.7554   18.1915 H       1  LIG   0.0280   0.1500 
18    N3       0.5220  -37.2120   19.8740 N.ar    1  LIG  -0.6893  -0.6200 
19    C10      0.7040  -36.9790   21.1800 C.ar    1  LIG   0.6480   0.4100 
20    N4       1.7670  -37.6730   21.8260 N.pl3   1  LIG  -0.6924  -0.3690 
21    C11      2.7540  -36.8570   22.5840 C.ar    1  LIG   0.5805   0.4100 
22    C12      2.9040  -34.5090   25.6010 C.3     1  LIG  -0.0620   0.1435 
23    H7       2.2235  -33.7630   25.2820 H       1  LIG   0.0570   0.0000 
24    H8       2.4436  -35.1154   26.3371 H       1  LIG   0.0495   0.0000 
25    H9       3.7654  -34.0491   26.0108 H       1  LIG   0.0519   0.0000 
26    O1      -1.2400  -35.9060   23.9770 O.2     1  LIG  -0.6361  -0.5700 
27    C13      2.3440  -38.7570   21.0360 C.3     1  LIG   0.1354   0.0690 
28    H10      3.1238  -38.3754   20.4296 H       1  LIG   0.0981   0.1000 
29    C14      2.9380  -39.8900   21.8010 C.3     1  LIG  -0.1181  -0.2000 
30    H11      3.8890  -40.1268   21.3997 H       1  LIG   0.0732   0.1000 
31    H12      3.0430  -39.6129   22.8177 H       1  LIG   0.0789   0.1000 
32    C15      1.6390  -40.0610   21.0880 C.3     1  LIG  -0.1196  -0.2000 
33    H13      0.6832  -39.9283   21.5242 H       1  LIG   0.0807   0.1000 
34    H14      1.5292  -40.4423   20.1061 H       1  LIG   0.0733   0.1000 
@<TRIPOS>BOND
1     2     1     ar
2     3     2     1
3     4     2     ar
4     5     4     1
5     6     4     ar
6     7     6     ar
7     8     7     1
8     9     8     1
9     10    8     1
10    11    10    1
11    12    11    ar
12    13    12    1
13    14    12    ar
14    15    14    1
15    16    14    ar
16    17    16    1
17    18    16    ar
18    19    11    ar
19    19    18    ar
20    20    19    1
21    21    1     ar
22    21    7     ar
23    21    20    1
24    22    6     1
25    23    22    1
26    24    22    1
27    25    22    1
28    26    10    2
29    27    20    1
30    28    27    1
31    29    27    1
32    30    29    1
33    31    29    1
34    32    27    1
35    32    29    1
36    33    32    1
37    34    32    1
@<TRIPOS>SUBSTRUCTURE
1   LIG    1    
 
########## Name        : 1VRT.lig
########## Description : AM1BCC_CHARGES =  -0.0002 ORIGINAL_CHARGES =  -0.0000

@<TRIPOS>MOLECULE
1VRT.lig
34    37    1     0     0    
SMALL
USER_CHARGES
@<TRIPOS>ATOM
1     N1       4.0540  -36.9310   22.2210 N.ar    1  LIG  -0.6650  -0.6200 
2     C1       4.9660  -36.2380   22.9390 C.ar    1  LIG   0.3947   0.1600 
3     H1       6.0082  -36.2811   22.6707 H       1  LIG   0.0281   0.1500 
4     C2       4.6240  -35.4500   24.0360 C.ar    1  LIG  -0.2334  -0.1500 
5     H2       5.3884  -34.9151   24.5740 H       1  LIG   0.1480   0.1500 
6     C3       3.3050  -35.3690   24.4150 C.ar    1  LIG  -0.0698  -0.1435 
7     C4       2.3460  -36.0770   23.6860 C.ar    1  LIG  -0.0398   0.1170 
8     N2       0.9890  -36.0280   24.1030 N.am    1  LIG  -0.4596  -0.5470 
9     H3       0.7643  -35.9928   25.0860 H       1  LIG   0.3311   0.3700 
10    C5      -0.1450  -36.0180   23.4080 C.2     1  LIG   0.7361   0.5438 
11    C6      -0.1190  -36.0770   21.8860 C.ar    1  LIG  -0.2550   0.0862 
12    C7      -1.1230  -35.3990   21.1890 C.ar    1  LIG  -0.0321  -0.1500 
13    H4      -1.7552  -34.6955   21.7041 H       1  LIG   0.1623   0.1500 
14    C8      -1.2960  -35.6300   19.8690 C.ar    1  LIG  -0.2723  -0.1500 
15    H5      -2.0662  -35.1073   19.3273 H       1  LIG   0.1522   0.1500 
16    C9      -0.4670  -36.5450   19.2400 C.ar    1  LIG   0.4373   0.1600 
17    H6      -0.5947  -36.7554   18.1915 H       1  LIG   0.0280   0.1500 
18    N3       0.5220  -37.2120   19.8740 N.ar    1  LIG  -0.6893  -0.6200 
19    C10      0.7040  -36.9790   21.1800 C.ar    1  LIG   0.6480   0.4100 
20    N4       1.7670  -37.6730   21.8260 N.pl3   1  LIG  -0.6924  -0.3690 
21    C11      2.7540  -36.8570   22.5840 C.ar    1  LIG   0.5805   0.4100 
22    C12      2.9040  -34.5090   25.6010 C.3     1  LIG  -0.0620   0.1435 
23    H7       2.2235  -33.7630   25.2820 H       1  LIG   0.0570   0.0000 
24    H8       2.4436  -35.1154   26.3371 H       1  LIG   0.0495   0.0000 
25    H9       3.7654  -34.0491   26.0108 H       1  LIG   0.0519   0.0000 
26    O1      -1.2400  -35.9060   23.9770 O.2     1  LIG  -0.6361  -0.5700 
27    C13      2.3440  -38.7570   21.0360 C.3     1  LIG   0.1354   0.0690 
28    H10      3.1238  -38.3754   20.4296 H       1  LIG   0.0981   0.1000 
29    C14      2.9380  -39.8900   21.8010 C.3     1  LIG  -0.1181  -0.2000 
30    H11      3.8890  -40.1268   21.3997 H       1  LIG   0.0732   0.1000 
31    H12      3.0430  -39.6129   22.8177 H       1  LIG   0.0789   0.1000 
32    C15      1.6390  -40.0610   21.0880 C.3     1  LIG  -0.1196  -0.2000 
33    H13      0.6832  -39.9283   21.5242 H       1  LIG   0.0807   0.1000 
34    H14      1.5292  -40.4423   20.1061 H       1  LIG   0.0733   0.1000 
@<TRIPOS>BOND
1     2     1     ar
2     3     2     1
3     4     2     ar
4     5     4     1
5     6     4     ar
6     7     6     ar
7     8     7     1
8     9     8     1
9     10    8     1
10    11    10    1
11    12    11    ar
12    13    12    1
13    14    12    ar
14    15    14    1
15    16    14    ar
16    17    16    1
17    18    16    ar
18    19    11    ar
19    19    18    ar
20    20    19    1
21    21    1     ar
22    21    7     ar
23    21    20    1
24    22    6     1
25    23    22    1
26    24    22    1
27    25    22    1
28    26    10    2
29    27    20    1
30    28    27    1
31    29    27    1
32    30    29    1
33    31    29    1
34    32    27    1
35    32    29    1
36    33    32    1
37    34    32    1
@<TRIPOS>SUBSTRUCTURE
1   LIG    1    
 
########## Name        : 1VRT.lig
########## Description : AM1BCC_CHARGES =  -0.0002 ORIGINAL_CHARGES =  -0.0000

@<TRIPOS>MOLECULE
1VRT.lig
34    37    1     0     0    
SMALL
USER_CHARGES
@<TRIPOS>ATOM
1     N1       4.0540  -36.9310   22.2210 N.ar    1  LIG  -0.6650  -0.6200 
2     C1       4.9660  -36.2380   22.9390 C.ar    1  LIG   0.3947   0.1600 
3     H1       6.0082  -36.2811   22.6707 H       1  LIG   0.0281   0.1500 
4     C2       4.6240  -35.4500   24.0360 C.ar    1  LIG  -0.2334  -0.1500 
5     H2       5.3884  -34.9151   24.5740 H       1  LIG   0.1480   0.1500 
6     C3       3.3050  -35.3690   24.4150 C.ar    1  LIG  -0.0698  -0.1435 
7     C4       2.3460  -36.0770   23.6860 C.ar    1  LIG  -0.0398   0.1170 
8     N2       0.9890  -36.0280   24.1030 N.am    1  LIG  -0.4596  -0.5470 
9     H3       0.7643  -35.9928   25.0860 H       1  LIG   0.3311   0.3700 
10    C5      -0.1450  -36.0180   23.4080 C.2     1  LIG   0.7361   0.5438 
11    C6      -0.1190  -36.0770   21.8860 C.ar    1  LIG  -0.2550   0.0862 
12    C7      -1.1230  -35.3990   21.1890 C.ar    1  LIG  -0.0321  -0.1500 
13    H4      -1.7552  -34.6955   21.7041 H       1  LIG   0.1623   0.1500 
14    C8      -1.2960  -35.6300   19.8690 C.ar    1  LIG  -0.2723  -0.1500 
15    H5      -2.0662  -35.1073   19.3273 H       1  LIG   0.1522   0.1500 
16    C9      -0.4670  -36.5450   19.2400 C.ar    1  LIG   0.4373   0.1600 
17    H6      -0.5947  -36.7554   18.1915 H       1  LIG   0.0280   0.1500 
18    N3       0.5220  -37.2120   19.8740 N.ar    1  LIG  -0.6893  -0.6200 
19    C10      0.7040  -36.9790   21.1800 C.ar    1  LIG   0.6480   0.4100 
20    N4       1.7670  -37.6730   21.8260 N.pl3   1  LIG  -0.6924  -0.3690 
21    C11      2.7540  -36.8570   22.5840 C.ar    1  LIG   0.5805   0.4100 
22    C12      2.9040  -34.5090   25.6010 C.3     1  LIG  -0.0620   0.1435 
23    H7       2.2235  -33.7630   25.2820 H       1  LIG   0.0570   0.0000 
24    H8       2.4436  -35.1154   26.3371 H       1  LIG   0.0495   0.0000 
25    H9       3.7654  -34.0491   26.0108 H       1  LIG   0.0519   0.0000 
26    O1      -1.2400  -35.9060   23.9770 O.2     1  LIG  -0.6361  -0.5700 
27    C13      2.3440  -38.7570   21.0360 C.3     1  LIG   0.1354   0.0690 
28    H10      3.1238  -38.3754   20.4296 H       1  LIG   0.0981   0.1000 
29    C14      2.9380  -39.8900   21.8010 C.3     1  LIG  -0.1181  -0.2000 
30    H11      3.8890  -40.1268   21.3997 H       1  LIG   0.0732   0.1000 
31    H12      3.0430  -39.6129   22.8177 H       1  LIG   0.0789   0.1000 
32    C15      1.6390  -40.0610   21.0880 C.3     1  LIG  -0.1196  -0.2000 
33    H13      0.6832  -39.9283   21.5242 H       1  LIG   0.0807   0.1000 
34    H14      1.5292  -40.4423   20.1061 H       1  LIG   0.0733   0.1000 
@<TRIPOS>BOND
1     2     1     ar
2     3     2     1
3     4     2     ar
4     5     4     1
5     6     4     ar
6     7     6     ar
7     8     7     1
8     9     8     1
9     10    8     1
10    11    10    1
11    12    11    ar
12    13    12    1
13    14    12    ar
14    15    14    1
15    16    14    ar
16    17    16    1
17    18    16    ar
18    19    11    ar
19    19    18    ar
20    20    19    1
21    21    1     ar
22    21    7     ar
23    21    20    1
24    22    6     1
25    23    22    1
26    24    22    1
27    25    22    1
28    26    10    2
29    27    20    1
30    28    27    1
31    29    27    1
32    30    29    1
33    31    29    1
34    32    27    1
35    32    29    1
36    33    32    1
37    34    32    1
@<TRIPOS>SUBSTRUCTURE
1   LIG    1    
 
########## Name        : 1VRT.lig
########## Description : AM1BCC_CHARGES =  -0.0002 ORIGINAL_CHARGES =  -0.0000

@<TRIPOS>MOLECULE
1VRT.lig
34    37    1     0     0    
SMALL
USER_CHARGES
@<TRIPOS>ATOM
1     N1       4.0540  -36.9310   22.2210 N.ar    1  LIG  -0.6650  -0.6200 
2     C1       4.9660  -36.2380   22.9390 C.ar    1  LIG   0.3947   0.1600 
3     H1       6.0082  -36.2811   22.6707 H       1  LIG   0.0281   0.1500 
4     C2       4.6240  -35.4500   24.0360 C.ar    1  LIG  -0.2334  -0.1500 
5     H2       5.3884  -34.9151   24.5740 H       1  LIG   0.1480   0.1500 
6     C3       3.3050  -35.3690   24.4150 C.ar    1  LIG  -0.0698  -0.1435 
7     C4       2.3460  -36.0770   23.6860 C.ar    1  LIG  -0.0398   0.1170 
8     N2       0.9890  -36.0280   24.1030 N.am    1  LIG  -0.4596  -0.5470 
9     H3       0.7643  -35.9928   25.0860 H       1  LIG   0.3311   0.3700 
10    C5      -0.1450  -36.0180   23.4080 C.2     1  LIG   0.7361   0.5438 
11    C6      -0.1190  -36.0770   21.8860 C.ar    1  LIG  -0.2550   0.0862 
12    C7      -1.1230  -35.3990   21.1890 C.ar    1  LIG  -0.0321  -0.1500 
13    H4      -1.7552  -34.6955   21.7041 H       1  LIG   0.1623   0.1500 
14    C8      -1.2960  -35.6300   19.8690 C.ar    1  LIG  -0.2723  -0.1500 
15    H5      -2.0662  -35.1073   19.3273 H       1  LIG   0.1522   0.1500 
16    C9      -0.4670  -36.5450   19.2400 C.ar    1  LIG   0.4373   0.1600 
17    H6      -0.5947  -36.7554   18.1915 H       1  LIG   0.0280   0.1500 
18    N3       0.5220  -37.2120   19.8740 N.ar    1  LIG  -0.6893  -0.6200 
19    C10      0.7040  -36.9790   21.1800 C.ar    1  LIG   0.6480   0.4100 
20    N4       1.7670  -37.6730   21.8260 N.pl3   1  LIG  -0.6924  -0.3690 
21    C11      2.7540  -36.8570   22.5840 C.ar    1  LIG   0.5805   0.4100 
22    C12      2.9040  -34.5090   25.6010 C.3     1  LIG  -0.0620   0.1435 
23    H7       2.2235  -33.7630   25.2820 H       1  LIG   0.0570   0.0000 
24    H8       2.4436  -35.1154   26.3371 H       1  LIG   0.0495   0.0000 
25    H9       3.7654  -34.0491   26.0108 H       1  LIG   0.0519   0.0000 
26    O1      -1.2400  -35.9060   23.9770 O.2     1  LIG  -0.6361  -0.5700 
27    C13      2.3440  -38.7570   21.0360 C.3     1  LIG   0.1354   0.0690 
28    H10      3.1238  -38.3754   20.4296 H       1  LIG   0.0981   0.1000 
29    C14      2.9380  -39.8900   21.8010 C.3     1  LIG  -0.1181  -0.2000 
30    H11      3.8890  -40.1268   21.3997 H       1  LIG   0.0732   0.1000 
31    H12      3.0430  -39.6129   22.8177 H       1  LIG   0.0789   0.1000 
32    C15      1.6390  -40.0610   21.0880 C.3     1  LIG  -0.1196  -0.2000 
33    H13      0.6832  -39.9283   21.5242 H       1  LIG   0.0807   0.1000 
34    H14      1.5292  -40.4423   20.1061 H       1  LIG   0.0733   0.1000 
@<TRIPOS>BOND
1     2     1     ar
2     3     2     1
3     4     2     ar
4     5     4     1
5     6     4     ar
6     7     6     ar
7     8     7     1
8     9     8     1
9     10    8     1
10    11    10    1
11    12    11    ar
12    13    12    1
13    14    12    ar
14    15    14    1
15    16    14    ar
16    17    16    1
17    18    16    ar
18    19    11    ar
19    19    18    ar
20    20    19    1
21    21    1     ar
22    21    7     ar
23    21    20    1
24    22    6     1
25    23    22    1
26    24    22    1
27    25    22    1
28    26    10    2
29    27    20    1
30    28    27    1
31    29    27    1
32    30    29    1
33    31    29    1
34    32    27    1
35    32    29    1
36    33    32    1
37    34    32    1
@<TRIPOS>SUBSTRUCTURE
1   LIG    1    
 
########## Name        : 1VRT.lig
########## Description : AM1BCC_CHARGES =  -0.0002 ORIGINAL_CHARGES =  -0.0000

@<TRIPOS>MOLECULE
1VRT.lig
34    37    1     0     0    
SMALL
USER_CHARGES
@<TRIPOS>ATOM
1     N1       4.0540  -36.9310   22.2210 N.ar    1  LIG  -0.6650  -0.6200 
2     C1       4.9660  -36.2380   22.9390 C.ar    1  LIG   0.3947   0.1600 
3     H1       6.0082  -36.2811   22.6707 H       1  LIG   0.0281   0.1500 
4     C2       4.6240  -35.4500   24.0360 C.ar    1  LIG  -0.2334  -0.1500 
5     H2       5.3884  -34.9151   24.5740 H       1  LIG   0.1480   0.1500 
6     C3       3.3050  -35.3690   24.4150 C.ar    1  LIG  -0.0698  -0.1435 
7     C4       2.3460  -36.0770   23.6860 C.ar    1  LIG  -0.0398   0.1170 
8     N2       0.9890  -36.0280   24.1030 N.am    1  LIG  -0.4596  -0.5470 
9     H3       0.7643  -35.9928   25.0860 H       1  LIG   0.3311   0.3700 
10    C5      -0.1450  -36.0180   23.4080 C.2     1  LIG   0.7361   0.5438 
11    C6      -0.1190  -36.0770   21.8860 C.ar    1  LIG  -0.2550   0.0862 
12    C7      -1.1230  -35.3990   21.1890 C.ar    1  LIG  -0.0321  -0.1500 
13    H4      -1.7552  -34.6955   21.7041 H       1  LIG   0.1623   0.1500 
14    C8      -1.2960  -35.6300   19.8690 C.ar    1  LIG  -0.2723  -0.1500 
15    H5      -2.0662  -35.1073   19.3273 H       1  LIG   0.1522   0.1500 
16    C9      -0.4670  -36.5450   19.2400 C.ar    1  LIG   0.4373   0.1600 
17    H6      -0.5947  -36.7554   18.1915 H       1  LIG   0.0280   0.1500 
18    N3       0.5220  -37.2120   19.8740 N.ar    1  LIG  -0.6893  -0.6200 
19    C10      0.7040  -36.9790   21.1800 C.ar    1  LIG   0.6480   0.4100 
20    N4       1.7670  -37.6730   21.8260 N.pl3   1  LIG  -0.6924  -0.3690 
21    C11      2.7540  -36.8570   22.5840 C.ar    1  LIG   0.5805   0.4100 
22    C12      2.9040  -34.5090   25.6010 C.3     1  LIG  -0.0620   0.1435 
23    H7       2.2235  -33.7630   25.2820 H       1  LIG   0.0570   0.0000 
24    H8       2.4436  -35.1154   26.3371 H       1  LIG   0.0495   0.0000 
25    H9       3.7654  -34.0491   26.0108 H       1  LIG   0.0519   0.0000 
26    O1      -1.2400  -35.9060   23.9770 O.2     1  LIG  -0.6361  -0.5700 
27    C13      2.3440  -38.7570   21.0360 C.3     1  LIG   0.1354   0.0690 
28    H10      3.1238  -38.3754   20.4296 H       1  LIG   0.0981   0.1000 
29    C14      2.9380  -39.8900   21.8010 C.3     1  LIG  -0.1181  -0.2000 
30    H11      3.8890  -40.1268   21.3997 H       1  LIG   0.0732   0.1000 
31    H12      3.0430  -39.6129   22.8177 H       1  LIG   0.0789   0.1000 
32    C15      1.6390  -40.0610   21.0880 C.3     1  LIG  -0.1196  -0.2000 
33    H13      0.6832  -39.9283   21.5242 H       1  LIG   0.0807   0.1000 
34    H14      1.5292  -40.4423   20.1061 H       1  LIG   0.0733   0.1000 
@<TRIPOS>BOND
1     2     1     ar
2     3     2     1
3     4     2     ar
4     5     4     1
5     6     4     ar
6     7     6     ar
7     8     7     1
8     9     8     1
9     10    8     1
10    11    10    1
11    12    11    ar
12    13    12    1
13    14    12    ar
14    15    14    1
15    16    14    ar
16    17    16    1
17    18    16    ar
18    19    11    ar
19    19    18    ar
20    20    19    1
21    21    1     ar
22    21    7     ar
23    21    20    1
24    22    6     1
25    23    22    1
26    24    22    1
27    25    22    1
28    26    10    2
29    27    20    1
30    28    27    1
31    29    27    1
32    30    29    1
33    31    29    1
34    32    27    1
35    32    29    1
36    33    32    1
37    34    32    1
@<TRIPOS>SUBSTRUCTURE
1   LIG    1    
 
########## Name        : 1VRT.lig
########## Description : AM1BCC_CHARGES =  -0.0002 ORIGINAL_CHARGES =  -0.0000

@<TRIPOS>MOLECULE
1VRT.lig
34    37    1     0     0    
SMALL
USER_CHARGES
@<TRIPOS>ATOM
1     N1       4.0540  -36.9310   22.2210 N.ar    1  LIG  -0.6650  -0.6200 
2     C1       4.9660  -36.2380   22.9390 C.ar    1  LIG   0.3947   0.1600 
3     H1       6.0082  -36.2811   22.6707 H       1  LIG   0.0281   0.1500 
4     C2       4.6240  -35.4500   24.0360 C.ar    1  LIG  -0.2334  -0.1500 
5     H2       5.3884  -34.9151   24.5740 H       1  LIG   0.1480   0.1500 
6     C3       3.3050  -35.3690   24.4150 C.ar    1  LIG  -0.0698  -0.1435 
7     C4       2.3460  -36.0770   23.6860 C.ar    1  LIG  -0.0398   0.1170 
8     N2       0.9890  -36.0280   24.1030 N.am    1  LIG  -0.4596  -0.5470 
9     H3       0.7643  -35.9928   25.0860 H       1  LIG   0.3311   0.3700 
10    C5      -0.1450  -36.0180   23.4080 C.2     1  LIG   0.7361   0.5438 
11    C6      -0.1190  -36.0770   21.8860 C.ar    1  LIG  -0.2550   0.0862 
12    C7      -1.1230  -35.3990   21.1890 C.ar    1  LIG  -0.0321  -0.1500 
13    H4      -1.7552  -34.6955   21.7041 H       1  LIG   0.1623   0.1500 
14    C8      -1.2960  -35.6300   19.8690 C.ar    1  LIG  -0.2723  -0.1500 
15    H5      -2.0662  -35.1073   19.3273 H       1  LIG   0.1522   0.1500 
16    C9      -0.4670  -36.5450   19.2400 C.ar    1  LIG   0.4373   0.1600 
17    H6      -0.5947  -36.7554   18.1915 H       1  LIG   0.0280   0.1500 
18    N3       0.5220  -37.2120   19.8740 N.ar    1  LIG  -0.6893  -0.6200 
19    C10      0.7040  -36.9790   21.1800 C.ar    1  LIG   0.6480   0.4100 
20    N4       1.7670  -37.6730   21.8260 N.pl3   1  LIG  -0.6924  -0.3690 
21    C11      2.7540  -36.8570   22.5840 C.ar    1  LIG   0.5805   0.4100 
22    C12      2.9040  -34.5090   25.6010 C.3     1  LIG  -0.0620   0.1435 
23    H7       2.2235  -33.7630   25.2820 H       1  LIG   0.0570   0.0000 
24    H8       2.4436  -35.1154   26.3371 H       1  LIG   0.0495   0.0000 
25    H9       3.7654  -34.0491   26.0108 H       1  LIG   0.0519   0.0000 
26    O1      -1.2400  -35.9060   23.9770 O.2     1  LIG  -0.6361  -0.5700 
27    C13      2.3440  -38.7570   21.0360 C.3     1  LIG   0.1354   0.0690 
28    H10      3.1238  -38.3754   20.4296 H       1  LIG   0.0981   0.1000 
29    C14      2.9380  -39.8900   21.8010 C.3     1  LIG  -0.1181  -0.2000 
30    H11      3.8890  -40.1268   21.3997 H       1  LIG   0.0732   0.1000 
31    H12      3.0430  -39.6129   22.8177 H       1  LIG   0.0789   0.1000 
32    C15      1.6390  -40.0610   21.0880 C.3     1  LIG  -0.1196  -0.2000 
33    H13      0.6832  -39.9283   21.5242 H       1  LIG   0.0807   0.1000 
34    H14      1.5292  -40.4423   20.1061 H       1  LIG   0.0733   0.1000 
@<TRIPOS>BOND
1     2     1     ar
2     3     2     1
3     4     2     ar
4     5     4     1
5     6     4     ar
6     7     6     ar
7     8     7     1
8     9     8     1
9     10    8     1
10    11    10    1
11    12    11    ar
12    13    12    1
13    14    12    ar
14    15    14    1
15    16    14    ar
16    17    16    1
17    18    16    ar
18    19    11    ar
19    19    18    ar
20    20    19    1
21    21    1     ar
22    21    7     ar
23    21    20    1
24    22    6     1
25    23    22    1
26    24    22    1
27    25    22    1
28    26    10    2
29    27    20    1
30    28    27    1
31    29    27    1
32    30    29    1
33    31    29    1
34    32    27    1
35    32    29    1
36    33    32    1
37    34    32    1
@<TRIPOS>SUBSTRUCTURE
1   LIG    1    
 
########## Name        : 1VRT.lig
########## Description : AM1BCC_CHARGES =  -0.0002 ORIGINAL_CHARGES =  -0.0000

@<TRIPOS>MOLECULE
1VRT.lig
34    37    1     0     0    
SMALL
USER_CHARGES
@<TRIPOS>ATOM
1     N1       4.0540  -36.9310   22.2210 N.ar    1  LIG  -0.6650  -0.6200 
2     C1       4.9660  -36.2380   22.9390 C.ar    1  LIG   0.3947   0.1600 
3     H1       6.0082  -36.2811   22.6707 H       1  LIG   0.0281   0.1500 
4     C2       4.6240  -35.4500   24.0360 C.ar    1  LIG  -0.2334  -0.1500 
5     H2       5.3884  -34.9151   24.5740 H       1  LIG   0.1480   0.1500 
6     C3       3.3050  -35.3690   24.4150 C.ar    1  LIG  -0.0698  -0.1435 
7     C4       2.3460  -36.0770   23.6860 C.ar    1  LIG  -0.0398   0.1170 
8     N2       0.9890  -36.0280   24.1030 N.am    1  LIG  -0.4596  -0.5470 
9     H3       0.7643  -35.9928   25.0860 H       1  LIG   0.3311   0.3700 
10    C5      -0.1450  -36.0180   23.4080 C.2     1  LIG   0.7361   0.5438 
11    C6      -0.1190  -36.0770   21.8860 C.ar    1  LIG  -0.2550   0.0862 
12    C7      -1.1230  -35.3990   21.1890 C.ar    1  LIG  -0.0321  -0.1500 
13    H4      -1.7552  -34.6955   21.7041 H       1  LIG   0.1623   0.1500 
14    C8      -1.2960  -35.6300   19.8690 C.ar    1  LIG  -0.2723  -0.1500 
15    H5      -2.0662  -35.1073   19.3273 H       1  LIG   0.1522   0.1500 
16    C9      -0.4670  -36.5450   19.2400 C.ar    1  LIG   0.4373   0.1600 
17    H6      -0.5947  -36.7554   18.1915 H       1  LIG   0.0280   0.1500 
18    N3       0.5220  -37.2120   19.8740 N.ar    1  LIG  -0.6893  -0.6200 
19    C10      0.7040  -36.9790   21.1800 C.ar    1  LIG   0.6480   0.4100 
20    N4       1.7670  -37.6730   21.8260 N.pl3   1  LIG  -0.6924  -0.3690 
21    C11      2.7540  -36.8570   22.5840 C.ar    1  LIG   0.5805   0.4100 
22    C12      2.9040  -34.5090   25.6010 C.3     1  LIG  -0.0620   0.1435 
23    H7       2.2235  -33.7630   25.2820 H       1  LIG   0.0570   0.0000 
24    H8       2.4436  -35.1154   26.3371 H       1  LIG   0.0495   0.0000 
25    H9       3.7654  -34.0491   26.0108 H       1  LIG   0.0519   0.0000 
26    O1      -1.2400  -35.9060   23.9770 O.2     1  LIG  -0.6361  -0.5700 
27    C13      2.3440  -38.7570   21.0360 C.3     1  LIG   0.1354   0.0690 
28    H10      3.1238  -38.3754   20.4296 H       1  LIG   0.0981   0.1000 
29    C14      2.9380  -39.8900   21.8010 C.3     1  LIG  -0.1181  -0.2000 
30    H11      3.8890  -40.1268   21.3997 H       1  LIG   0.0732   0.1000 
31    H12      3.0430  -39.6129   22.8177 H       1  LIG   0.0789   0.1000 
32    C15      1.6390  -40.0610   21.0880 C.3     1  LIG  -0.1196  -0.2000 
33    H13      0.6832  -39.9283   21.5242 H       1  LIG   0.0807   0.1000 
34    H14      1.5292  -40.4423   20.1061 H       1  LIG   0.0733   0.1000 
@<TRIPOS>BOND
1     2     1     ar
2     3     2     1
3     4     2     ar
4     5     4     1
5     6     4     ar
6     7     6     ar
7     8     7     1
8     9     8     1
9     10    8     1
10    11    10    1
11    12    11    ar
12    13    12    1
13    14    12    ar
14    15    14    1
15    16    14    ar
16    17    16    1
17    18    16    ar
18    19    11    ar
19    19    18    ar
20    20    19    1
21    21    1     ar
22    21    7     ar
23    21    20    1
24    22    6     1
25    23    22    1
26    24    22    1
27    25    22    1
28    26    10    2
29    27    20    1
30    28    27    1
31    29    27    1
32    30    29    1
33    31    29    1
34    32    27    1
35    32    29    1
36    33    32    1
37    34    32    1
@<TRIPOS>SUBSTRUCTURE
1   LIG    1    
 
########## Name        : 1VRT.lig
########## Description : AM1BCC_CHARGES =  -0.0002 ORIGINAL_CHARGES =  -0.0000

@<TRIPOS>MOLECULE
1VRT.lig
34    37    1     0     0    
SMALL
USER_CHARGES
@<TRIPOS>ATOM
1     N1       4.0540  -36.9310   22.2210 N.ar    1  LIG  -0.6650  -0.6200 
2     C1       4.9660  -36.2380   22.9390 C.ar    1  LIG   0.3947   0.1600 
3     H1       6.0082  -36.2811   22.6707 H       1  LIG   0.0281   0.1500 
4     C2       4.6240  -35.4500   24.0360 C.ar    1  LIG  -0.2334  -0.1500 
5     H2       5.3884  -34.9151   24.5740 H       1  LIG   0.1480   0.1500 
6     C3       3.3050  -35.3690   24.4150 C.ar    1  LIG  -0.0698  -0.1435 
7     C4       2.3460  -36.0770   23.6860 C.ar    1  LIG  -0.0398   0.1170 
8     N2       0.9890  -36.0280   24.1030 N.am    1  LIG  -0.4596  -0.5470 
9     H3       0.7643  -35.9928   25.0860 H       1  LIG   0.3311   0.3700 
10    C5      -0.1450  -36.0180   23.4080 C.2     1  LIG   0.7361   0.5438 
11    C6      -0.1190  -36.0770   21.8860 C.ar    1  LIG  -0.2550   0.0862 
12    C7      -1.1230  -35.3990   21.1890 C.ar    1  LIG  -0.0321  -0.1500 
13    H4      -1.7552  -34.6955   21.7041 H       1  LIG   0.1623   0.1500 
14    C8      -1.2960  -35.6300   19.8690 C.ar    1  LIG  -0.2723  -0.1500 
15    H5      -2.0662  -35.1073   19.3273 H       1  LIG   0.1522   0.1500 
16    C9      -0.4670  -36.5450   19.2400 C.ar    1  LIG   0.4373   0.1600 
17    H6      -0.5947  -36.7554   18.1915 H       1  LIG   0.0280   0.1500 
18    N3       0.5220  -37.2120   19.8740 N.ar    1  LIG  -0.6893  -0.6200 
19    C10      0.7040  -36.9790   21.1800 C.ar    1  LIG   0.6480   0.4100 
20    N4       1.7670  -37.6730   21.8260 N.pl3   1  LIG  -0.6924  -0.3690 
21    C11      2.7540  -36.8570   22.5840 C.ar    1  LIG   0.5805   0.4100 
22    C12      2.9040  -34.5090   25.6010 C.3     1  LIG  -0.0620   0.1435 
23    H7       2.2235  -33.7630   25.2820 H       1  LIG   0.0570   0.0000 
24    H8       2.4436  -35.1154   26.3371 H       1  LIG   0.0495   0.0000 
25    H9       3.7654  -34.0491   26.0108 H       1  LIG   0.0519   0.0000 
26    O1      -1.2400  -35.9060   23.9770 O.2     1  LIG  -0.6361  -0.5700 
27    C13      2.3440  -38.7570   21.0360 C.3     1  LIG   0.1354   0.0690 
28    H10      3.1238  -38.3754   20.4296 H       1  LIG   0.0981   0.1000 
29    C14      2.9380  -39.8900   21.8010 C.3     1  LIG  -0.1181  -0.2000 
30    H11      3.8890  -40.1268   21.3997 H       1  LIG   0.0732   0.1000 
31    H12      3.0430  -39.6129   22.8177 H       1  LIG   0.0789   0.1000 
32    C15      1.6390  -40.0610   21.0880 C.3     1  LIG  -0.1196  -0.2000 
33    H13      0.6832  -39.9283   21.5242 H       1  LIG   0.0807   0.1000 
34    H14      1.5292  -40.4423   20.1061 H       1  LIG   0.0733   0.1000 
@<TRIPOS>BOND
1     2     1     ar
2     3     2     1
3     4     2     ar
4     5     4     1
5     6     4     ar
6     7     6     ar
7     8     7     1
8     9     8     1
9     10    8     1
10    11    10    1
11    12    11    ar
12    13    12    1
13    14    12    ar
14    15    14    1
15    16    14    ar
16    17    16    1
17    18    16    ar
18    19    11    ar
19    19    18    ar
20    20    19    1
21    21    1     ar
22    21    7     ar
23    21    20    1
24    22    6     1
25    23    22    1
26    24    22    1
27    25    22    1
28    26    10    2
29    27    20    1
30    28    27    1
31    29    27    1
32    30    29    1
33    31    29    1
34    32    27    1
35    32    29    1
36    33    32    1
37    34    32    1
@<TRIPOS>SUBSTRUCTURE
1   LIG    1    
 
########## Name        : 1VRT.lig
########## Description : AM1BCC_CHARGES =  -0.0002 ORIGINAL_CHARGES =  -0.0000

@<TRIPOS>MOLECULE
1VRT.lig
34    37    1     0     0    
SMALL
USER_CHARGES
@<TRIPOS>ATOM
1     N1       4.0540  -36.9310   22.2210 N.ar    1  LIG  -0.6650  -0.6200 
2     C1       4.9660  -36.2380   22.9390 C.ar    1  LIG   0.3947   0.1600 
3     H1       6.0082  -36.2811   22.6707 H       1  LIG   0.0281   0.1500 
4     C2       4.6240  -35.4500   24.0360 C.ar    1  LIG  -0.2334  -0.1500 
5     H2       5.3884  -34.9151   24.5740 H       1  LIG   0.1480   0.1500 
6     C3       3.3050  -35.3690   24.4150 C.ar    1  LIG  -0.0698  -0.1435 
7     C4       2.3460  -36.0770   23.6860 C.ar    1  LIG  -0.0398   0.1170 
8     N2       0.9890  -36.0280   24.1030 N.am    1  LIG  -0.4596  -0.5470 
9     H3       0.7643  -35.9928   25.0860 H       1  LIG   0.3311   0.3700 
10    C5      -0.1450  -36.0180   23.4080 C.2     1  LIG   0.7361   0.5438 
11    C6      -0.1190  -36.0770   21.8860 C.ar    1  LIG  -0.2550   0.0862 
12    C7      -1.1230  -35.3990   21.1890 C.ar    1  LIG  -0.0321  -0.1500 
13    H4      -1.7552  -34.6955   21.7041 H       1  LIG   0.1623   0.1500 
14    C8      -1.2960  -35.6300   19.8690 C.ar    1  LIG  -0.2723  -0.1500 
15    H5      -2.0662  -35.1073   19.3273 H       1  LIG   0.1522   0.1500 
16    C9      -0.4670  -36.5450   19.2400 C.ar    1  LIG   0.4373   0.1600 
17    H6      -0.5947  -36.7554   18.1915 H       1  LIG   0.0280   0.1500 
18    N3       0.5220  -37.2120   19.8740 N.ar    1  LIG  -0.6893  -0.6200 
19    C10      0.7040  -36.9790   21.1800 C.ar    1  LIG   0.6480   0.4100 
20    N4       1.7670  -37.6730   21.8260 N.pl3   1  LIG  -0.6924  -0.3690 
21    C11      2.7540  -36.8570   22.5840 C.ar    1  LIG   0.5805   0.4100 
22    C12      2.9040  -34.5090   25.6010 C.3     1  LIG  -0.0620   0.1435 
23    H7       2.2235  -33.7630   25.2820 H       1  LIG   0.0570   0.0000 
24    H8       2.4436  -35.1154   26.3371 H       1  LIG   0.0495   0.0000 
25    H9       3.7654  -34.0491   26.0108 H       1  LIG   0.0519   0.0000 
26    O1      -1.2400  -35.9060   23.9770 O.2     1  LIG  -0.6361  -0.5700 
27    C13      2.3440  -38.7570   21.0360 C.3     1  LIG   0.1354   0.0690 
28    H10      3.1238  -38.3754   20.4296 H       1  LIG   0.0981   0.1000 
29    C14      2.9380  -39.8900   21.8010 C.3     1  LIG  -0.1181  -0.2000 
30    H11      3.8890  -40.1268   21.3997 H       1  LIG   0.0732   0.1000 
31    H12      3.0430  -39.6129   22.8177 H       1  LIG   0.0789   0.1000 
32    C15      1.6390  -40.0610   21.0880 C.3     1  LIG  -0.1196  -0.2000 
33    H13      0.6832  -39.9283   21.5242 H       1  LIG   0.0807   0.1000 
34    H14      1.5292  -40.4423   20.1061 H       1  LIG   0.0733   0.1000 
@<TRIPOS>BOND
1     2     1     ar
2     3     2     1
3     4     2     ar
4     5     4     1
5     6     4     ar
6     7     6     ar
7     8     7     1
8     9     8     1
9     10    8     1
10    11    10    1
11    12    11    ar
12    13    12    1
13    14    12    ar
14    15    14    1
15    16    14    ar
16    17    16    1
17    18    16    ar
18    19    11    ar
19    19    18    ar
20    20    19    1
21    21    1     ar
22    21    7     ar
23    21    20    1
24    22    6     1
25    23    22    1
26    24    22    1
27    25    22    1
28    26    10    2
29    27    20    1
30    28    27    1
31    29    27    1
32    30    29    1
33    31    29    1
34    32    27    1
35    32    29    1
36    33    32    1
37    34    32    1
@<TRIPOS>SUBSTRUCTURE
1   LIG    1    
 
########## Name        : 1VRT.lig
########## Description : AM1BCC_CHARGES =  -0.0002 ORIGINAL_CHARGES =  -0.0000

@<TRIPOS>MOLECULE
1VRT.lig
34    37    1     0     0    
SMALL
USER_CHARGES
@<TRIPOS>ATOM
1     N1       4.0540  -36.9310   22.2210 N.ar    1  LIG  -0.6650  -0.6200 
2     C1       4.9660  -36.2380   22.9390 C.ar    1  LIG   0.3947   0.1600 
3     H1       6.0082  -36.2811   22.6707 H       1  LIG   0.0281   0.1500 
4     C2       4.6240  -35.4500   24.0360 C.ar    1  LIG  -0.2334  -0.1500 
5     H2       5.3884  -34.9151   24.5740 H       1  LIG   0.1480   0.1500 
6     C3       3.3050  -35.3690   24.4150 C.ar    1  LIG  -0.0698  -0.1435 
7     C4       2.3460  -36.0770   23.6860 C.ar    1  LIG  -0.0398   0.1170 
8     N2       0.9890  -36.0280   24.1030 N.am    1  LIG  -0.4596  -0.5470 
9     H3       0.7643  -35.9928   25.0860 H       1  LIG   0.3311   0.3700 
10    C5      -0.1450  -36.0180   23.4080 C.2     1  LIG   0.7361   0.5438 
11    C6      -0.1190  -36.0770   21.8860 C.ar    1  LIG  -0.2550   0.0862 
12    C7      -1.1230  -35.3990   21.1890 C.ar    1  LIG  -0.0321  -0.1500 
13    H4      -1.7552  -34.6955   21.7041 H       1  LIG   0.1623   0.1500 
14    C8      -1.2960  -35.6300   19.8690 C.ar    1  LIG  -0.2723  -0.1500 
15    H5      -2.0662  -35.1073   19.3273 H       1  LIG   0.1522   0.1500 
16    C9      -0.4670  -36.5450   19.2400 C.ar    1  LIG   0.4373   0.1600 
17    H6      -0.5947  -36.7554   18.1915 H       1  LIG   0.0280   0.1500 
18    N3       0.5220  -37.2120   19.8740 N.ar    1  LIG  -0.6893  -0.6200 
19    C10      0.7040  -36.9790   21.1800 C.ar    1  LIG   0.6480   0.4100 
20    N4       1.7670  -37.6730   21.8260 N.pl3   1  LIG  -0.6924  -0.3690 
21    C11      2.7540  -36.8570   22.5840 C.ar    1  LIG   0.5805   0.4100 
22    C12      2.9040  -34.5090   25.6010 C.3     1  LIG  -0.0620   0.1435 
23    H7       2.2235  -33.7630   25.2820 H       1  LIG   0.0570   0.0000 
24    H8       2.4436  -35.1154   26.3371 H       1  LIG   0.0495   0.0000 
25    H9       3.7654  -34.0491   26.0108 H       1  LIG   0.0519   0.0000 
26    O1      -1.2400  -35.9060   23.9770 O.2     1  LIG  -0.6361  -0.5700 
27    C13      2.3440  -38.7570   21.0360 C.3     1  LIG   0.1354   0.0690 
28    H10      3.1238  -38.3754   20.4296 H       1  LIG   0.0981   0.1000 
29    C14      2.9380  -39.8900   21.8010 C.3     1  LIG  -0.1181  -0.2000 
30    H11      3.8890  -40.1268   21.3997 H       1  LIG   0.0732   0.1000 
31    H12      3.0430  -39.6129   22.8177 H       1  LIG   0.0789   0.1000 
32    C15      1.6390  -40.0610   21.0880 C.3     1  LIG  -0.1196  -0.2000 
33    H13      0.6832  -39.9283   21.5242 H       1  LIG   0.0807   0.1000 
34    H14      1.5292  -40.4423   20.1061 H       1  LIG   0.0733   0.1000 
@<TRIPOS>BOND
1     2     1     ar
2     3     2     1
3     4     2     ar
4     5     4     1
5     6     4     ar
6     7     6     ar
7     8     7     1
8     9     8     1
9     10    8     1
10    11    10    1
11    12    11    ar
12    13    12    1
13    14    12    ar
14    15    14    1
15    16    14    ar
16    17    16    1
17    18    16    ar
18    19    11    ar
19    19    18    ar
20    20    19    1
21    21    1     ar
22    21    7     ar
23    21    20    1
24    22    6     1
25    23    22    1
26    24    22    1
27    25    22    1
28    26    10    2
29    27    20    1
30    28    27    1
31    29    27    1
32    30    29    1
33    31    29    1
34    32    27    1
35    32    29    1
36    33    32    1
37    34    32    1
@<TRIPOS>SUBSTRUCTURE
1   LIG    1    
 
########## Name        : 1VRT.lig
########## Description : AM1BCC_CHARGES =  -0.0002 ORIGINAL_CHARGES =  -0.0000

@<TRIPOS>MOLECULE
1VRT.lig
34    37    1     0     0    
SMALL
USER_CHARGES
@<TRIPOS>ATOM
1     N1       4.0540  -36.9310   22.2210 N.ar    1  LIG  -0.6650  -0.6200 
2     C1       4.9660  -36.2380   22.9390 C.ar    1  LIG   0.3947   0.1600 
3     H1       6.0082  -36.2811   22.6707 H       1  LIG   0.0281   0.1500 
4     C2       4.6240  -35.4500   24.0360 C.ar    1  LIG  -0.2334  -0.1500 
5     H2       5.3884  -34.9151   24.5740 H       1  LIG   0.1480   0.1500 
6     C3       3.3050  -35.3690   24.4150 C.ar    1  LIG  -0.0698  -0.1435 
7     C4       2.3460  -36.0770   23.6860 C.ar    1  LIG  -0.0398   0.1170 
8     N2       0.9890  -36.0280   24.1030 N.am    1  LIG  -0.4596  -0.5470 
9     H3       0.7643  -35.9928   25.0860 H       1  LIG   0.3311   0.3700 
10    C5      -0.1450  -36.0180   23.4080 C.2     1  LIG   0.7361   0.5438 
11    C6      -0.1190  -36.0770   21.8860 C.ar    1  LIG  -0.2550   0.0862 
12    C7      -1.1230  -35.3990   21.1890 C.ar    1  LIG  -0.0321  -0.1500 
13    H4      -1.7552  -34.6955   21.7041 H       1  LIG   0.1623   0.1500 
14    C8      -1.2960  -35.6300   19.8690 C.ar    1  LIG  -0.2723  -0.1500 
15    H5      -2.0662  -35.1073   19.3273 H       1  LIG   0.1522   0.1500 
16    C9      -0.4670  -36.5450   19.2400 C.ar    1  LIG   0.4373   0.1600 
17    H6      -0.5947  -36.7554   18.1915 H       1  LIG   0.0280   0.1500 
18    N3       0.5220  -37.2120   19.8740 N.ar    1  LIG  -0.6893  -0.6200 
19    C10      0.7040  -36.9790   21.1800 C.ar    1  LIG   0.6480   0.4100 
20    N4       1.7670  -37.6730   21.8260 N.pl3   1  LIG  -0.6924  -0.3690 
21    C11      2.7540  -36.8570   22.5840 C.ar    1  LIG   0.5805   0.4100 
22    C12      2.9040  -34.5090   25.6010 C.3     1  LIG  -0.0620   0.1435 
23    H7       2.2235  -33.7630   25.2820 H       1  LIG   0.0570   0.0000 
24    H8       2.4436  -35.1154   26.3371 H       1  LIG   0.0495   0.0000 
25    H9       3.7654  -34.0491   26.0108 H       1  LIG   0.0519   0.0000 
26    O1      -1.2400  -35.9060   23.9770 O.2     1  LIG  -0.6361  -0.5700 
27    C13      2.3440  -38.7570   21.0360 C.3     1  LIG   0.1354   0.0690 
28    H10      3.1238  -38.3754   20.4296 H       1  LIG   0.0981   0.1000 
29    C14      2.9380  -39.8900   21.8010 C.3     1  LIG  -0.1181  -0.2000 
30    H11      3.8890  -40.1268   21.3997 H       1  LIG   0.0732   0.1000 
31    H12      3.0430  -39.6129   22.8177 H       1  LIG   0.0789   0.1000 
32    C15      1.6390  -40.0610   21.0880 C.3     1  LIG  -0.1196  -0.2000 
33    H13      0.6832  -39.9283   21.5242 H       1  LIG   0.0807   0.1000 
34    H14      1.5292  -40.4423   20.1061 H       1  LIG   0.0733   0.1000 
@<TRIPOS>BOND
1     2     1     ar
2     3     2     1
3     4     2     ar
4     5     4     1
5     6     4     ar
6     7     6     ar
7     8     7     1
8     9     8     1
9     10    8     1
10    11    10    1
11    12    11    ar
12    13    12    1
13    14    12    ar
14    15    14    1
15    16    14    ar
16    17    16    1
17    18    16    ar
18    19    11    ar
19    19    18    ar
20    20    19    1
21    21    1     ar
22    21    7     ar
23    21    20    1
24    22    6     1
25    23    22    1
26    24    22    1
27    25    22    1
28    26    10    2
29    27    20    1
30    28    27    1
31    29    27    1
32    30    29    1
33    31    29    1
34    32    27    1
35    32    29    1
36    33    32    1
37    34    32    1
@<TRIPOS>SUBSTRUCTURE
1   LIG    1    
 
########## Name        : 1VRT.lig
########## Description : AM1BCC_CHARGES =  -0.0002 ORIGINAL_CHARGES =  -0.0000

@<TRIPOS>MOLECULE
1VRT.lig
34    37    1     0     0    
SMALL
USER_CHARGES
@<TRIPOS>ATOM
1     N1       4.0540  -36.9310   22.2210 N.ar    1  LIG  -0.6650  -0.6200 
2     C1       4.9660  -36.2380   22.9390 C.ar    1  LIG   0.3947   0.1600 
3     H1       6.0082  -36.2811   22.6707 H       1  LIG   0.0281   0.1500 
4     C2       4.6240  -35.4500   24.0360 C.ar    1  LIG  -0.2334  -0.1500 
5     H2       5.3884  -34.9151   24.5740 H       1  LIG   0.1480   0.1500 
6     C3       3.3050  -35.3690   24.4150 C.ar    1  LIG  -0.0698  -0.1435 
7     C4       2.3460  -36.0770   23.6860 C.ar    1  LIG  -0.0398   0.1170 
8     N2       0.9890  -36.0280   24.1030 N.am    1  LIG  -0.4596  -0.5470 
9     H3       0.7643  -35.9928   25.0860 H       1  LIG   0.3311   0.3700 
10    C5      -0.1450  -36.0180   23.4080 C.2     1  LIG   0.7361   0.5438 
11    C6      -0.1190  -36.0770   21.8860 C.ar    1  LIG  -0.2550   0.0862 
12    C7      -1.1230  -35.3990   21.1890 C.ar    1  LIG  -0.0321  -0.1500 
13    H4      -1.7552  -34.6955   21.7041 H       1  LIG   0.1623   0.1500 
14    C8      -1.2960  -35.6300   19.8690 C.ar    1  LIG  -0.2723  -0.1500 
15    H5      -2.0662  -35.1073   19.3273 H       1  LIG   0.1522   0.1500 
16    C9      -0.4670  -36.5450   19.2400 C.ar    1  LIG   0.4373   0.1600 
17    H6      -0.5947  -36.7554   18.1915 H       1  LIG   0.0280   0.1500 
18    N3       0.5220  -37.2120   19.8740 N.ar    1  LIG  -0.6893  -0.6200 
19    C10      0.7040  -36.9790   21.1800 C.ar    1  LIG   0.6480   0.4100 
20    N4       1.7670  -37.6730   21.8260 N.pl3   1  LIG  -0.6924  -0.3690 
21    C11      2.7540  -36.8570   22.5840 C.ar    1  LIG   0.5805   0.4100 
22    C12      2.9040  -34.5090   25.6010 C.3     1  LIG  -0.0620   0.1435 
23    H7       2.2235  -33.7630   25.2820 H       1  LIG   0.0570   0.0000 
24    H8       2.4436  -35.1154   26.3371 H       1  LIG   0.0495   0.0000 
25    H9       3.7654  -34.0491   26.0108 H       1  LIG   0.0519   0.0000 
26    O1      -1.2400  -35.9060   23.9770 O.2     1  LIG  -0.6361  -0.5700 
27    C13      2.3440  -38.7570   21.0360 C.3     1  LIG   0.1354   0.0690 
28    H10      3.1238  -38.3754   20.4296 H       1  LIG   0.0981   0.1000 
29    C14      2.9380  -39.8900   21.8010 C.3     1  LIG  -0.1181  -0.2000 
30    H11      3.8890  -40.1268   21.3997 H       1  LIG   0.0732   0.1000 
31    H12      3.0430  -39.6129   22.8177 H       1  LIG   0.0789   0.1000 
32    C15      1.6390  -40.0610   21.0880 C.3     1  LIG  -0.1196  -0.2000 
33    H13      0.6832  -39.9283   21.5242 H       1  LIG   0.0807   0.1000 
34    H14      1.5292  -40.4423   20.1061 H       1  LIG   0.0733   0.1000 
@<TRIPOS>BOND
1     2     1     ar
2     3     2     1
3     4     2     ar
4     5     4     1
5     6     4     ar
6     7     6     ar
7     8     7     1
8     9     8     1
9     10    8     1
10    11    10    1
11    12    11    ar
12    13    12    1
13    14    12    ar
14    15    14    1
15    16    14    ar
16    17    16    1
17    18    16    ar
18    19    11    ar
19    19    18    ar
20    20    19    1
21    21    1     ar
22    21    7     ar
23    21    20    1
24    22    6     1
25    23    22    1
26    24    22    1
27    25    22    1
28    26    10    2
29    27    20    1
30    28    27    1
31    29    27    1
32    30    29    1
33    31    29    1
34    32    27    1
35    32    29    1
36    33    32    1
37    34    32    1
@<TRIPOS>SUBSTRUCTURE
1   LIG    1    
 
########## Name        : 1VRT.lig
########## Description : AM1BCC_CHARGES =  -0.0002 ORIGINAL_CHARGES =  -0.0000

@<TRIPOS>MOLECULE
1VRT.lig
34    37    1     0     0    
SMALL
USER_CHARGES
@<TRIPOS>ATOM
1     N1       4.0540  -36.9310   22.2210 N.ar    1  LIG  -0.6650  -0.6200 
2     C1       4.9660  -36.2380   22.9390 C.ar    1  LIG   0.3947   0.1600 
3     H1       6.0082  -36.2811   22.6707 H       1  LIG   0.0281   0.1500 
4     C2       4.6240  -35.4500   24.0360 C.ar    1  LIG  -0.2334  -0.1500 
5     H2       5.3884  -34.9151   24.5740 H       1  LIG   0.1480   0.1500 
6     C3       3.3050  -35.3690   24.4150 C.ar    1  LIG  -0.0698  -0.1435 
7     C4       2.3460  -36.0770   23.6860 C.ar    1  LIG  -0.0398   0.1170 
8     N2       0.9890  -36.0280   24.1030 N.am    1  LIG  -0.4596  -0.5470 
9     H3       0.7643  -35.9928   25.0860 H       1  LIG   0.3311   0.3700 
10    C5      -0.1450  -36.0180   23.4080 C.2     1  LIG   0.7361   0.5438 
11    C6      -0.1190  -36.0770   21.8860 C.ar    1  LIG  -0.2550   0.0862 
12    C7      -1.1230  -35.3990   21.1890 C.ar    1  LIG  -0.0321  -0.1500 
13    H4      -1.7552  -34.6955   21.7041 H       1  LIG   0.1623   0.1500 
14    C8      -1.2960  -35.6300   19.8690 C.ar    1  LIG  -0.2723  -0.1500 
15    H5      -2.0662  -35.1073   19.3273 H       1  LIG   0.1522   0.1500 
16    C9      -0.4670  -36.5450   19.2400 C.ar    1  LIG   0.4373   0.1600 
17    H6      -0.5947  -36.7554   18.1915 H       1  LIG   0.0280   0.1500 
18    N3       0.5220  -37.2120   19.8740 N.ar    1  LIG  -0.6893  -0.6200 
19    C10      0.7040  -36.9790   21.1800 C.ar    1  LIG   0.6480   0.4100 
20    N4       1.7670  -37.6730   21.8260 N.pl3   1  LIG  -0.6924  -0.3690 
21    C11      2.7540  -36.8570   22.5840 C.ar    1  LIG   0.5805   0.4100 
22    C12      2.9040  -34.5090   25.6010 C.3     1  LIG  -0.0620   0.1435 
23    H7       2.2235  -33.7630   25.2820 H       1  LIG   0.0570   0.0000 
24    H8       2.4436  -35.1154   26.3371 H       1  LIG   0.0495   0.0000 
25    H9       3.7654  -34.0491   26.0108 H       1  LIG   0.0519   0.0000 
26    O1      -1.2400  -35.9060   23.9770 O.2     1  LIG  -0.6361  -0.5700 
27    C13      2.3440  -38.7570   21.0360 C.3     1  LIG   0.1354   0.0690 
28    H10      3.1238  -38.3754   20.4296 H       1  LIG   0.0981   0.1000 
29    C14      2.9380  -39.8900   21.8010 C.3     1  LIG  -0.1181  -0.2000 
30    H11      3.8890  -40.1268   21.3997 H       1  LIG   0.0732   0.1000 
31    H12      3.0430  -39.6129   22.8177 H       1  LIG   0.0789   0.1000 
32    C15      1.6390  -40.0610   21.0880 C.3     1  LIG  -0.1196  -0.2000 
33    H13      0.6832  -39.9283   21.5242 H       1  LIG   0.0807   0.1000 
34    H14      1.5292  -40.4423   20.1061 H       1  LIG   0.0733   0.1000 
@<TRIPOS>BOND
1     2     1     ar
2     3     2     1
3     4     2     ar
4     5     4     1
5     6     4     ar
6     7     6     ar
7     8     7     1
8     9     8     1
9     10    8     1
10    11    10    1
11    12    11    ar
12    13    12    1
13    14    12    ar
14    15    14    1
15    16    14    ar
16    17    16    1
17    18    16    ar
18    19    11    ar
19    19    18    ar
20    20    19    1
21    21    1     ar
22    21    7     ar
23    21    20    1
24    22    6     1
25    23    22    1
26    24    22    1
27    25    22    1
28    26    10    2
29    27    20    1
30    28    27    1
31    29    27    1
32    30    29    1
33    31    29    1
34    32    27    1
35    32    29    1
36    33    32    1
37    34    32    1
@<TRIPOS>SUBSTRUCTURE
1   LIG    1    
 
########## Name        : 1VRT.lig
########## Description : AM1BCC_CHARGES =  -0.0002 ORIGINAL_CHARGES =  -0.0000

@<TRIPOS>MOLECULE
1VRT.lig
34    37    1     0     0    
SMALL
USER_CHARGES
@<TRIPOS>ATOM
1     N1       4.0540  -36.9310   22.2210 N.ar    1  LIG  -0.6650  -0.6200 
2     C1       4.9660  -36.2380   22.9390 C.ar    1  LIG   0.3947   0.1600 
3     H1       6.0082  -36.2811   22.6707 H       1  LIG   0.0281   0.1500 
4     C2       4.6240  -35.4500   24.0360 C.ar    1  LIG  -0.2334  -0.1500 
5     H2       5.3884  -34.9151   24.5740 H       1  LIG   0.1480   0.1500 
6     C3       3.3050  -35.3690   24.4150 C.ar    1  LIG  -0.0698  -0.1435 
7     C4       2.3460  -36.0770   23.6860 C.ar    1  LIG  -0.0398   0.1170 
8     N2       0.9890  -36.0280   24.1030 N.am    1  LIG  -0.4596  -0.5470 
9     H3       0.7643  -35.9928   25.0860 H       1  LIG   0.3311   0.3700 
10    C5      -0.1450  -36.0180   23.4080 C.2     1  LIG   0.7361   0.5438 
11    C6      -0.1190  -36.0770   21.8860 C.ar    1  LIG  -0.2550   0.0862 
12    C7      -1.1230  -35.3990   21.1890 C.ar    1  LIG  -0.0321  -0.1500 
13    H4      -1.7552  -34.6955   21.7041 H       1  LIG   0.1623   0.1500 
14    C8      -1.2960  -35.6300   19.8690 C.ar    1  LIG  -0.2723  -0.1500 
15    H5      -2.0662  -35.1073   19.3273 H       1  LIG   0.1522   0.1500 
16    C9      -0.4670  -36.5450   19.2400 C.ar    1  LIG   0.4373   0.1600 
17    H6      -0.5947  -36.7554   18.1915 H       1  LIG   0.0280   0.1500 
18    N3       0.5220  -37.2120   19.8740 N.ar    1  LIG  -0.6893  -0.6200 
19    C10      0.7040  -36.9790   21.1800 C.ar    1  LIG   0.6480   0.4100 
20    N4       1.7670  -37.6730   21.8260 N.pl3   1  LIG  -0.6924  -0.3690 
21    C11      2.7540  -36.8570   22.5840 C.ar    1  LIG   0.5805   0.4100 
22    C12      2.9040  -34.5090   25.6010 C.3     1  LIG  -0.0620   0.1435 
23    H7       2.2235  -33.7630   25.2820 H       1  LIG   0.0570   0.0000 
24    H8       2.4436  -35.1154   26.3371 H       1  LIG   0.0495   0.0000 
25    H9       3.7654  -34.0491   26.0108 H       1  LIG   0.0519   0.0000 
26    O1      -1.2400  -35.9060   23.9770 O.2     1  LIG  -0.6361  -0.5700 
27    C13      2.3440  -38.7570   21.0360 C.3     1  LIG   0.1354   0.0690 
28    H10      3.1238  -38.3754   20.4296 H       1  LIG   0.0981   0.1000 
29    C14      2.9380  -39.8900   21.8010 C.3     1  LIG  -0.1181  -0.2000 
30    H11      3.8890  -40.1268   21.3997 H       1  LIG   0.0732   0.1000 
31    H12      3.0430  -39.6129   22.8177 H       1  LIG   0.0789   0.1000 
32    C15      1.6390  -40.0610   21.0880 C.3     1  LIG  -0.1196  -0.2000 
33    H13      0.6832  -39.9283   21.5242 H       1  LIG   0.0807   0.1000 
34    H14      1.5292  -40.4423   20.1061 H       1  LIG   0.0733   0.1000 
@<TRIPOS>BOND
1     2     1     ar
2     3     2     1
3     4     2     ar
4     5     4     1
5     6     4     ar
6     7     6     ar
7     8     7     1
8     9     8     1
9     10    8     1
10    11    10    1
11    12    11    ar
12    13    12    1
13    14    12    ar
14    15    14    1
15    16    14    ar
16    17    16    1
17    18    16    ar
18    19    11    ar
19    19    18    ar
20    20    19    1
21    21    1     ar
22    21    7     ar
23    21    20    1
24    22    6     1
25    23    22    1
26    24    22    1
27    25    22    1
28    26    10    2
29    27    20    1
30    28    27    1
31    29    27    1
32    30    29    1
33    31    29    1
34    32    27    1
35    32    29    1
36    33    32    1
37    34    32    1
@<TRIPOS>SUBSTRUCTURE
1   LIG    1    
 
########## Name        : 1VRT.lig
########## Description : AM1BCC_CHARGES =  -0.0002 ORIGINAL_CHARGES =  -0.0000

@<TRIPOS>MOLECULE
1VRT.lig
34    37    1     0     0    
SMALL
USER_CHARGES
@<TRIPOS>ATOM
1     N1       4.0540  -36.9310   22.2210 N.ar    1  LIG  -0.6650  -0.6200 
2     C1       4.9660  -36.2380   22.9390 C.ar    1  LIG   0.3947   0.1600 
3     H1       6.0082  -36.2811   22.6707 H       1  LIG   0.0281   0.1500 
4     C2       4.6240  -35.4500   24.0360 C.ar    1  LIG  -0.2334  -0.1500 
5     H2       5.3884  -34.9151   24.5740 H       1  LIG   0.1480   0.1500 
6     C3       3.3050  -35.3690   24.4150 C.ar    1  LIG  -0.0698  -0.1435 
7     C4       2.3460  -36.0770   23.6860 C.ar    1  LIG  -0.0398   0.1170 
8     N2       0.9890  -36.0280   24.1030 N.am    1  LIG  -0.4596  -0.5470 
9     H3       0.7643  -35.9928   25.0860 H       1  LIG   0.3311   0.3700 
10    C5      -0.1450  -36.0180   23.4080 C.2     1  LIG   0.7361   0.5438 
11    C6      -0.1190  -36.0770   21.8860 C.ar    1  LIG  -0.2550   0.0862 
12    C7      -1.1230  -35.3990   21.1890 C.ar    1  LIG  -0.0321  -0.1500 
13    H4      -1.7552  -34.6955   21.7041 H       1  LIG   0.1623   0.1500 
14    C8      -1.2960  -35.6300   19.8690 C.ar    1  LIG  -0.2723  -0.1500 
15    H5      -2.0662  -35.1073   19.3273 H       1  LIG   0.1522   0.1500 
16    C9      -0.4670  -36.5450   19.2400 C.ar    1  LIG   0.4373   0.1600 
17    H6      -0.5947  -36.7554   18.1915 H       1  LIG   0.0280   0.1500 
18    N3       0.5220  -37.2120   19.8740 N.ar    1  LIG  -0.6893  -0.6200 
19    C10      0.7040  -36.9790   21.1800 C.ar    1  LIG   0.6480   0.4100 
20    N4       1.7670  -37.6730   21.8260 N.pl3   1  LIG  -0.6924  -0.3690 
21    C11      2.7540  -36.8570   22.5840 C.ar    1  LIG   0.5805   0.4100 
22    C12      2.9040  -34.5090   25.6010 C.3     1  LIG  -0.0620   0.1435 
23    H7       2.2235  -33.7630   25.2820 H       1  LIG   0.0570   0.0000 
24    H8       2.4436  -35.1154   26.3371 H       1  LIG   0.0495   0.0000 
25    H9       3.7654  -34.0491   26.0108 H       1  LIG   0.0519   0.0000 
26    O1      -1.2400  -35.9060   23.9770 O.2     1  LIG  -0.6361  -0.5700 
27    C13      2.3440  -38.7570   21.0360 C.3     1  LIG   0.1354   0.0690 
28    H10      3.1238  -38.3754   20.4296 H       1  LIG   0.0981   0.1000 
29    C14      2.9380  -39.8900   21.8010 C.3     1  LIG  -0.1181  -0.2000 
30    H11      3.8890  -40.1268   21.3997 H       1  LIG   0.0732   0.1000 
31    H12      3.0430  -39.6129   22.8177 H       1  LIG   0.0789   0.1000 
32    C15      1.6390  -40.0610   21.0880 C.3     1  LIG  -0.1196  -0.2000 
33    H13      0.6832  -39.9283   21.5242 H       1  LIG   0.0807   0.1000 
34    H14      1.5292  -40.4423   20.1061 H       1  LIG   0.0733   0.1000 
@<TRIPOS>BOND
1     2     1     ar
2     3     2     1
3     4     2     ar
4     5     4     1
5     6     4     ar
6     7     6     ar
7     8     7     1
8     9     8     1
9     10    8     1
10    11    10    1
11    12    11    ar
12    13    12    1
13    14    12    ar
14    15    14    1
15    16    14    ar
16    17    16    1
17    18    16    ar
18    19    11    ar
19    19    18    ar
20    20    19    1
21    21    1     ar
22    21    7     ar
23    21    20    1
24    22    6     1
25    23    22    1
26    24    22    1
27    25    22    1
28    26    10    2
29    27    20    1
30    28    27    1
31    29    27    1
32    30    29    1
33    31    29    1
34    32    27    1
35    32    29    1
36    33    32    1
37    34    32    1
@<TRIPOS>SUBSTRUCTURE
1   LIG    1    
 
########## Name        : 1VRT.lig
########## Description : AM1BCC_CHARGES =  -0.0002 ORIGINAL_CHARGES =  -0.0000

@<TRIPOS>MOLECULE
1VRT.lig
34    37    1     0     0    
SMALL
USER_CHARGES
@<TRIPOS>ATOM
1     N1       4.0540  -36.9310   22.2210 N.ar    1  LIG  -0.6650  -0.6200 
2     C1       4.9660  -36.2380   22.9390 C.ar    1  LIG   0.3947   0.1600 
3     H1       6.0082  -36.2811   22.6707 H       1  LIG   0.0281   0.1500 
4     C2       4.6240  -35.4500   24.0360 C.ar    1  LIG  -0.2334  -0.1500 
5     H2       5.3884  -34.9151   24.5740 H       1  LIG   0.1480   0.1500 
6     C3       3.3050  -35.3690   24.4150 C.ar    1  LIG  -0.0698  -0.1435 
7     C4       2.3460  -36.0770   23.6860 C.ar    1  LIG  -0.0398   0.1170 
8     N2       0.9890  -36.0280   24.1030 N.am    1  LIG  -0.4596  -0.5470 
9     H3       0.7643  -35.9928   25.0860 H       1  LIG   0.3311   0.3700 
10    C5      -0.1450  -36.0180   23.4080 C.2     1  LIG   0.7361   0.5438 
11    C6      -0.1190  -36.0770   21.8860 C.ar    1  LIG  -0.2550   0.0862 
12    C7      -1.1230  -35.3990   21.1890 C.ar    1  LIG  -0.0321  -0.1500 
13    H4      -1.7552  -34.6955   21.7041 H       1  LIG   0.1623   0.1500 
14    C8      -1.2960  -35.6300   19.8690 C.ar    1  LIG  -0.2723  -0.1500 
15    H5      -2.0662  -35.1073   19.3273 H       1  LIG   0.1522   0.1500 
16    C9      -0.4670  -36.5450   19.2400 C.ar    1  LIG   0.4373   0.1600 
17    H6      -0.5947  -36.7554   18.1915 H       1  LIG   0.0280   0.1500 
18    N3       0.5220  -37.2120   19.8740 N.ar    1  LIG  -0.6893  -0.6200 
19    C10      0.7040  -36.9790   21.1800 C.ar    1  LIG   0.6480   0.4100 
20    N4       1.7670  -37.6730   21.8260 N.pl3   1  LIG  -0.6924  -0.3690 
21    C11      2.7540  -36.8570   22.5840 C.ar    1  LIG   0.5805   0.4100 
22    C12      2.9040  -34.5090   25.6010 C.3     1  LIG  -0.0620   0.1435 
23    H7       2.2235  -33.7630   25.2820 H       1  LIG   0.0570   0.0000 
24    H8       2.4436  -35.1154   26.3371 H       1  LIG   0.0495   0.0000 
25    H9       3.7654  -34.0491   26.0108 H       1  LIG   0.0519   0.0000 
26    O1      -1.2400  -35.9060   23.9770 O.2     1  LIG  -0.6361  -0.5700 
27    C13      2.3440  -38.7570   21.0360 C.3     1  LIG   0.1354   0.0690 
28    H10      3.1238  -38.3754   20.4296 H       1  LIG   0.0981   0.1000 
29    C14      2.9380  -39.8900   21.8010 C.3     1  LIG  -0.1181  -0.2000 
30    H11      3.8890  -40.1268   21.3997 H       1  LIG   0.0732   0.1000 
31    H12      3.0430  -39.6129   22.8177 H       1  LIG   0.0789   0.1000 
32    C15      1.6390  -40.0610   21.0880 C.3     1  LIG  -0.1196  -0.2000 
33    H13      0.6832  -39.9283   21.5242 H       1  LIG   0.0807   0.1000 
34    H14      1.5292  -40.4423   20.1061 H       1  LIG   0.0733   0.1000 
@<TRIPOS>BOND
1     2     1     ar
2     3     2     1
3     4     2     ar
4     5     4     1
5     6     4     ar
6     7     6     ar
7     8     7     1
8     9     8     1
9     10    8     1
10    11    10    1
11    12    11    ar
12    13    12    1
13    14    12    ar
14    15    14    1
15    16    14    ar
16    17    16    1
17    18    16    ar
18    19    11    ar
19    19    18    ar
20    20    19    1
21    21    1     ar
22    21    7     ar
23    21    20    1
24    22    6     1
25    23    22    1
26    24    22    1
27    25    22    1
28    26    10    2
29    27    20    1
30    28    27    1
31    29    27    1
32    30    29    1
33    31    29    1
34    32    27    1
35    32    29    1
36    33    32    1
37    34    32    1
@<TRIPOS>SUBSTRUCTURE
1   LIG    1    
 
########## Name        : 1VRT.lig
########## Description : AM1BCC_CHARGES =  -0.0002 ORIGINAL_CHARGES =  -0.0000

@<TRIPOS>MOLECULE
1VRT.lig
34    37    1     0     0    
SMALL
USER_CHARGES
@<TRIPOS>ATOM
1     N1       4.0540  -36.9310   22.2210 N.ar    1  LIG  -0.6650  -0.6200 
2     C1       4.9660  -36.2380   22.9390 C.ar    1  LIG   0.3947   0.1600 
3     H1       6.0082  -36.2811   22.6707 H       1  LIG   0.0281   0.1500 
4     C2       4.6240  -35.4500   24.0360 C.ar    1  LIG  -0.2334  -0.1500 
5     H2       5.3884  -34.9151   24.5740 H       1  LIG   0.1480   0.1500 
6     C3       3.3050  -35.3690   24.4150 C.ar    1  LIG  -0.0698  -0.1435 
7     C4       2.3460  -36.0770   23.6860 C.ar    1  LIG  -0.0398   0.1170 
8     N2       0.9890  -36.0280   24.1030 N.am    1  LIG  -0.4596  -0.5470 
9     H3       0.7643  -35.9928   25.0860 H       1  LIG   0.3311   0.3700 
10    C5      -0.1450  -36.0180   23.4080 C.2     1  LIG   0.7361   0.5438 
11    C6      -0.1190  -36.0770   21.8860 C.ar    1  LIG  -0.2550   0.0862 
12    C7      -1.1230  -35.3990   21.1890 C.ar    1  LIG  -0.0321  -0.1500 
13    H4      -1.7552  -34.6955   21.7041 H       1  LIG   0.1623   0.1500 
14    C8      -1.2960  -35.6300   19.8690 C.ar    1  LIG  -0.2723  -0.1500 
15    H5      -2.0662  -35.1073   19.3273 H       1  LIG   0.1522   0.1500 
16    C9      -0.4670  -36.5450   19.2400 C.ar    1  LIG   0.4373   0.1600 
17    H6      -0.5947  -36.7554   18.1915 H       1  LIG   0.0280   0.1500 
18    N3       0.5220  -37.2120   19.8740 N.ar    1  LIG  -0.6893  -0.6200 
19    C10      0.7040  -36.9790   21.1800 C.ar    1  LIG   0.6480   0.4100 
20    N4       1.7670  -37.6730   21.8260 N.pl3   1  LIG  -0.6924  -0.3690 
21    C11      2.7540  -36.8570   22.5840 C.ar    1  LIG   0.5805   0.4100 
22    C12      2.9040  -34.5090   25.6010 C.3     1  LIG  -0.0620   0.1435 
23    H7       2.2235  -33.7630   25.2820 H       1  LIG   0.0570   0.0000 
24    H8       2.4436  -35.1154   26.3371 H       1  LIG   0.0495   0.0000 
25    H9       3.7654  -34.0491   26.0108 H       1  LIG   0.0519   0.0000 
26    O1      -1.2400  -35.9060   23.9770 O.2     1  LIG  -0.6361  -0.5700 
27    C13      2.3440  -38.7570   21.0360 C.3     1  LIG   0.1354   0.0690 
28    H10      3.1238  -38.3754   20.4296 H       1  LIG   0.0981   0.1000 
29    C14      2.9380  -39.8900   21.8010 C.3     1  LIG  -0.1181  -0.2000 
30    H11      3.8890  -40.1268   21.3997 H       1  LIG   0.0732   0.1000 
31    H12      3.0430  -39.6129   22.8177 H       1  LIG   0.0789   0.1000 
32    C15      1.6390  -40.0610   21.0880 C.3     1  LIG  -0.1196  -0.2000 
33    H13      0.6832  -39.9283   21.5242 H       1  LIG   0.0807   0.1000 
34    H14      1.5292  -40.4423   20.1061 H       1  LIG   0.0733   0.1000 
@<TRIPOS>BOND
1     2     1     ar
2     3     2     1
3     4     2     ar
4     5     4     1
5     6     4     ar
6     7     6     ar
7     8     7     1
8     9     8     1
9     10    8     1
10    11    10    1
11    12    11    ar
12    13    12    1
13    14    12    ar
14    15    14    1
15    16    14    ar
16    17    16    1
17    18    16    ar
18    19    11    ar
19    19    18    ar
20    20    19    1
21    21    1     ar
22    21    7     ar
23    21    20    1
24    22    6     1
25    23    22    1
26    24    22    1
27    25    22    1
28    26    10    2
29    27    20    1
30    28    27    1
31    29    27    1
32    30    29    1
33    31    29    1
34    32    27    1
35    32    29    1
36    33    32    1
37    34    32    1
@<TRIPOS>SUBSTRUCTURE
1   LIG    1    
 
########## Name        : 1VRT.lig
########## Description : AM1BCC_CHARGES =  -0.0002 ORIGINAL_CHARGES =  -0.0000

@<TRIPOS>MOLECULE
1VRT.lig
34    37    1     0     0    
SMALL
USER_CHARGES
@<TRIPOS>ATOM
1     N1       4.0540  -36.9310   22.2210 N.ar    1  LIG  -0.6650  -0.6200 
2     C1       4.9660  -36.2380   22.9390 C.ar    1  LIG   0.3947   0.1600 
3     H1       6.0082  -36.2811   22.6707 H       1  LIG   0.0281   0.1500 
4     C2       4.6240  -35.4500   24.0360 C.ar    1  LIG  -0.2334  -0.1500 
5     H2       5.3884  -34.9151   24.5740 H       1  LIG   0.1480   0.1500 
6     C3       3.3050  -35.3690   24.4150 C.ar    1  LIG  -0.0698  -0.1435 
7     C4       2.3460  -36.0770   23.6860 C.ar    1  LIG  -0.0398   0.1170 
8     N2       0.9890  -36.0280   24.1030 N.am    1  LIG  -0.4596  -0.5470 
9     H3       0.7643  -35.9928   25.0860 H       1  LIG   0.3311   0.3700 
10    C5      -0.1450  -36.0180   23.4080 C.2     1  LIG   0.7361   0.5438 
11    C6      -0.1190  -36.0770   21.8860 C.ar    1  LIG  -0.2550   0.0862 
12    C7      -1.1230  -35.3990   21.1890 C.ar    1  LIG  -0.0321  -0.1500 
13    H4      -1.7552  -34.6955   21.7041 H       1  LIG   0.1623   0.1500 
14    C8      -1.2960  -35.6300   19.8690 C.ar    1  LIG  -0.2723  -0.1500 
15    H5      -2.0662  -35.1073   19.3273 H       1  LIG   0.1522   0.1500 
16    C9      -0.4670  -36.5450   19.2400 C.ar    1  LIG   0.4373   0.1600 
17    H6      -0.5947  -36.7554   18.1915 H       1  LIG   0.0280   0.1500 
18    N3       0.5220  -37.2120   19.8740 N.ar    1  LIG  -0.6893  -0.6200 
19    C10      0.7040  -36.9790   21.1800 C.ar    1  LIG   0.6480   0.4100 
20    N4       1.7670  -37.6730   21.8260 N.pl3   1  LIG  -0.6924  -0.3690 
21    C11      2.7540  -36.8570   22.5840 C.ar    1  LIG   0.5805   0.4100 
22    C12      2.9040  -34.5090   25.6010 C.3     1  LIG  -0.0620   0.1435 
23    H7       2.2235  -33.7630   25.2820 H       1  LIG   0.0570   0.0000 
24    H8       2.4436  -35.1154   26.3371 H       1  LIG   0.0495   0.0000 
25    H9       3.7654  -34.0491   26.0108 H       1  LIG   0.0519   0.0000 
26    O1      -1.2400  -35.9060   23.9770 O.2     1  LIG  -0.6361  -0.5700 
27    C13      2.3440  -38.7570   21.0360 C.3     1  LIG   0.1354   0.0690 
28    H10      3.1238  -38.3754   20.4296 H       1  LIG   0.0981   0.1000 
29    C14      2.9380  -39.8900   21.8010 C.3     1  LIG  -0.1181  -0.2000 
30    H11      3.8890  -40.1268   21.3997 H       1  LIG   0.0732   0.1000 
31    H12      3.0430  -39.6129   22.8177 H       1  LIG   0.0789   0.1000 
32    C15      1.6390  -40.0610   21.0880 C.3     1  LIG  -0.1196  -0.2000 
33    H13      0.6832  -39.9283   21.5242 H       1  LIG   0.0807   0.1000 
34    H14      1.5292  -40.4423   20.1061 H       1  LIG   0.0733   0.1000 
@<TRIPOS>BOND
1     2     1     ar
2     3     2     1
3     4     2     ar
4     5     4     1
5     6     4     ar
6     7     6     ar
7     8     7     1
8     9     8     1
9     10    8     1
10    11    10    1
11    12    11    ar
12    13    12    1
13    14    12    ar
14    15    14    1
15    16    14    ar
16    17    16    1
17    18    16    ar
18    19    11    ar
19    19    18    ar
20    20    19    1
21    21    1     ar
22    21    7     ar
23    21    20    1
24    22    6     1
25    23    22    1
26    24    22    1
27    25    22    1
28    26    10    2
29    27    20    1
30    28    27    1
31    29    27    1
32    30    29    1
33    31    29    1
34    32    27    1
35    32    29    1
36    33    32    1
37    34    32    1
@<TRIPOS>SUBSTRUCTURE
1   LIG    1    
 
########## Name        : 1VRT.lig
########## Description : AM1BCC_CHARGES =  -0.0002 ORIGINAL_CHARGES =  -0.0000

@<TRIPOS>MOLECULE
1VRT.lig
34    37    1     0     0    
SMALL
USER_CHARGES
@<TRIPOS>ATOM
1     N1       4.0540  -36.9310   22.2210 N.ar    1  LIG  -0.6650  -0.6200 
2     C1       4.9660  -36.2380   22.9390 C.ar    1  LIG   0.3947   0.1600 
3     H1       6.0082  -36.2811   22.6707 H       1  LIG   0.0281   0.1500 
4     C2       4.6240  -35.4500   24.0360 C.ar    1  LIG  -0.2334  -0.1500 
5     H2       5.3884  -34.9151   24.5740 H       1  LIG   0.1480   0.1500 
6     C3       3.3050  -35.3690   24.4150 C.ar    1  LIG  -0.0698  -0.1435 
7     C4       2.3460  -36.0770   23.6860 C.ar    1  LIG  -0.0398   0.1170 
8     N2       0.9890  -36.0280   24.1030 N.am    1  LIG  -0.4596  -0.5470 
9     H3       0.7643  -35.9928   25.0860 H       1  LIG   0.3311   0.3700 
10    C5      -0.1450  -36.0180   23.4080 C.2     1  LIG   0.7361   0.5438 
11    C6      -0.1190  -36.0770   21.8860 C.ar    1  LIG  -0.2550   0.0862 
12    C7      -1.1230  -35.3990   21.1890 C.ar    1  LIG  -0.0321  -0.1500 
13    H4      -1.7552  -34.6955   21.7041 H       1  LIG   0.1623   0.1500 
14    C8      -1.2960  -35.6300   19.8690 C.ar    1  LIG  -0.2723  -0.1500 
15    H5      -2.0662  -35.1073   19.3273 H       1  LIG   0.1522   0.1500 
16    C9      -0.4670  -36.5450   19.2400 C.ar    1  LIG   0.4373   0.1600 
17    H6      -0.5947  -36.7554   18.1915 H       1  LIG   0.0280   0.1500 
18    N3       0.5220  -37.2120   19.8740 N.ar    1  LIG  -0.6893  -0.6200 
19    C10      0.7040  -36.9790   21.1800 C.ar    1  LIG   0.6480   0.4100 
20    N4       1.7670  -37.6730   21.8260 N.pl3   1  LIG  -0.6924  -0.3690 
21    C11      2.7540  -36.8570   22.5840 C.ar    1  LIG   0.5805   0.4100 
22    C12      2.9040  -34.5090   25.6010 C.3     1  LIG  -0.0620   0.1435 
23    H7       2.2235  -33.7630   25.2820 H       1  LIG   0.0570   0.0000 
24    H8       2.4436  -35.1154   26.3371 H       1  LIG   0.0495   0.0000 
25    H9       3.7654  -34.0491   26.0108 H       1  LIG   0.0519   0.0000 
26    O1      -1.2400  -35.9060   23.9770 O.2     1  LIG  -0.6361  -0.5700 
27    C13      2.3440  -38.7570   21.0360 C.3     1  LIG   0.1354   0.0690 
28    H10      3.1238  -38.3754   20.4296 H       1  LIG   0.0981   0.1000 
29    C14      2.9380  -39.8900   21.8010 C.3     1  LIG  -0.1181  -0.2000 
30    H11      3.8890  -40.1268   21.3997 H       1  LIG   0.0732   0.1000 
31    H12      3.0430  -39.6129   22.8177 H       1  LIG   0.0789   0.1000 
32    C15      1.6390  -40.0610   21.0880 C.3     1  LIG  -0.1196  -0.2000 
33    H13      0.6832  -39.9283   21.5242 H       1  LIG   0.0807   0.1000 
34    H14      1.5292  -40.4423   20.1061 H       1  LIG   0.0733   0.1000 
@<TRIPOS>BOND
1     2     1     ar
2     3     2     1
3     4     2     ar
4     5     4     1
5     6     4     ar
6     7     6     ar
7     8     7     1
8     9     8     1
9     10    8     1
10    11    10    1
11    12    11    ar
12    13    12    1
13    14    12    ar
14    15    14    1
15    16    14    ar
16    17    16    1
17    18    16    ar
18    19    11    ar
19    19    18    ar
20    20    19    1
21    21    1     ar
22    21    7     ar
23    21    20    1
24    22    6     1
25    23    22    1
26    24    22    1
27    25    22    1
28    26    10    2
29    27    20    1
30    28    27    1
31    29    27    1
32    30    29    1
33    31    29    1
34    32    27    1
35    32    29    1
36    33    32    1
37    34    32    1
@<TRIPOS>SUBSTRUCTURE
1   LIG    1    
 
########## Name        : 1VRT.lig
########## Description : AM1BCC_CHARGES =  -0.0002 ORIGINAL_CHARGES =  -0.0000

@<TRIPOS>MOLECULE
1VRT.lig
34    37    1     0     0    
SMALL
USER_CHARGES
@<TRIPOS>ATOM
1     N1       4.0540  -36.9310   22.2210 N.ar    1  LIG  -0.6650  -0.6200 
2     C1       4.9660  -36.2380   22.9390 C.ar    1  LIG   0.3947   0.1600 
3     H1       6.0082  -36.2811   22.6707 H       1  LIG   0.0281   0.1500 
4     C2       4.6240  -35.4500   24.0360 C.ar    1  LIG  -0.2334  -0.1500 
5     H2       5.3884  -34.9151   24.5740 H       1  LIG   0.1480   0.1500 
6     C3       3.3050  -35.3690   24.4150 C.ar    1  LIG  -0.0698  -0.1435 
7     C4       2.3460  -36.0770   23.6860 C.ar    1  LIG  -0.0398   0.1170 
8     N2       0.9890  -36.0280   24.1030 N.am    1  LIG  -0.4596  -0.5470 
9     H3       0.7643  -35.9928   25.0860 H       1  LIG   0.3311   0.3700 
10    C5      -0.1450  -36.0180   23.4080 C.2     1  LIG   0.7361   0.5438 
11    C6      -0.1190  -36.0770   21.8860 C.ar    1  LIG  -0.2550   0.0862 
12    C7      -1.1230  -35.3990   21.1890 C.ar    1  LIG  -0.0321  -0.1500 
13    H4      -1.7552  -34.6955   21.7041 H       1  LIG   0.1623   0.1500 
14    C8      -1.2960  -35.6300   19.8690 C.ar    1  LIG  -0.2723  -0.1500 
15    H5      -2.0662  -35.1073   19.3273 H       1  LIG   0.1522   0.1500 
16    C9      -0.4670  -36.5450   19.2400 C.ar    1  LIG   0.4373   0.1600 
17    H6      -0.5947  -36.7554   18.1915 H       1  LIG   0.0280   0.1500 
18    N3       0.5220  -37.2120   19.8740 N.ar    1  LIG  -0.6893  -0.6200 
19    C10      0.7040  -36.9790   21.1800 C.ar    1  LIG   0.6480   0.4100 
20    N4       1.7670  -37.6730   21.8260 N.pl3   1  LIG  -0.6924  -0.3690 
21    C11      2.7540  -36.8570   22.5840 C.ar    1  LIG   0.5805   0.4100 
22    C12      2.9040  -34.5090   25.6010 C.3     1  LIG  -0.0620   0.1435 
23    H7       2.2235  -33.7630   25.2820 H       1  LIG   0.0570   0.0000 
24    H8       2.4436  -35.1154   26.3371 H       1  LIG   0.0495   0.0000 
25    H9       3.7654  -34.0491   26.0108 H       1  LIG   0.0519   0.0000 
26    O1      -1.2400  -35.9060   23.9770 O.2     1  LIG  -0.6361  -0.5700 
27    C13      2.3440  -38.7570   21.0360 C.3     1  LIG   0.1354   0.0690 
28    H10      3.1238  -38.3754   20.4296 H       1  LIG   0.0981   0.1000 
29    C14      2.9380  -39.8900   21.8010 C.3     1  LIG  -0.1181  -0.2000 
30    H11      3.8890  -40.1268   21.3997 H       1  LIG   0.0732   0.1000 
31    H12      3.0430  -39.6129   22.8177 H       1  LIG   0.0789   0.1000 
32    C15      1.6390  -40.0610   21.0880 C.3     1  LIG  -0.1196  -0.2000 
33    H13      0.6832  -39.9283   21.5242 H       1  LIG   0.0807   0.1000 
34    H14      1.5292  -40.4423   20.1061 H       1  LIG   0.0733   0.1000 
@<TRIPOS>BOND
1     2     1     ar
2     3     2     1
3     4     2     ar
4     5     4     1
5     6     4     ar
6     7     6     ar
7     8     7     1
8     9     8     1
9     10    8     1
10    11    10    1
11    12    11    ar
12    13    12    1
13    14    12    ar
14    15    14    1
15    16    14    ar
16    17    16    1
17    18    16    ar
18    19    11    ar
19    19    18    ar
20    20    19    1
21    21    1     ar
22    21    7     ar
23    21    20    1
24    22    6     1
25    23    22    1
26    24    22    1
27    25    22    1
28    26    10    2
29    27    20    1
30    28    27    1
31    29    27    1
32    30    29    1
33    31    29    1
34    32    27    1
35    32    29    1
36    33    32    1
37    34    32    1
@<TRIPOS>SUBSTRUCTURE
1   LIG    1    
 
########## Name        : 1VRT.lig
########## Description : AM1BCC_CHARGES =  -0.0002 ORIGINAL_CHARGES =  -0.0000

@<TRIPOS>MOLECULE
1VRT.lig
34    37    1     0     0    
SMALL
USER_CHARGES
@<TRIPOS>ATOM
1     N1       4.0540  -36.9310   22.2210 N.ar    1  LIG  -0.6650  -0.6200 
2     C1       4.9660  -36.2380   22.9390 C.ar    1  LIG   0.3947   0.1600 
3     H1       6.0082  -36.2811   22.6707 H       1  LIG   0.0281   0.1500 
4     C2       4.6240  -35.4500   24.0360 C.ar    1  LIG  -0.2334  -0.1500 
5     H2       5.3884  -34.9151   24.5740 H       1  LIG   0.1480   0.1500 
6     C3       3.3050  -35.3690   24.4150 C.ar    1  LIG  -0.0698  -0.1435 
7     C4       2.3460  -36.0770   23.6860 C.ar    1  LIG  -0.0398   0.1170 
8     N2       0.9890  -36.0280   24.1030 N.am    1  LIG  -0.4596  -0.5470 
9     H3       0.7643  -35.9928   25.0860 H       1  LIG   0.3311   0.3700 
10    C5      -0.1450  -36.0180   23.4080 C.2     1  LIG   0.7361   0.5438 
11    C6      -0.1190  -36.0770   21.8860 C.ar    1  LIG  -0.2550   0.0862 
12    C7      -1.1230  -35.3990   21.1890 C.ar    1  LIG  -0.0321  -0.1500 
13    H4      -1.7552  -34.6955   21.7041 H       1  LIG   0.1623   0.1500 
14    C8      -1.2960  -35.6300   19.8690 C.ar    1  LIG  -0.2723  -0.1500 
15    H5      -2.0662  -35.1073   19.3273 H       1  LIG   0.1522   0.1500 
16    C9      -0.4670  -36.5450   19.2400 C.ar    1  LIG   0.4373   0.1600 
17    H6      -0.5947  -36.7554   18.1915 H       1  LIG   0.0280   0.1500 
18    N3       0.5220  -37.2120   19.8740 N.ar    1  LIG  -0.6893  -0.6200 
19    C10      0.7040  -36.9790   21.1800 C.ar    1  LIG   0.6480   0.4100 
20    N4       1.7670  -37.6730   21.8260 N.pl3   1  LIG  -0.6924  -0.3690 
21    C11      2.7540  -36.8570   22.5840 C.ar    1  LIG   0.5805   0.4100 
22    C12      2.9040  -34.5090   25.6010 C.3     1  LIG  -0.0620   0.1435 
23    H7       2.2235  -33.7630   25.2820 H       1  LIG   0.0570   0.0000 
24    H8       2.4436  -35.1154   26.3371 H       1  LIG   0.0495   0.0000 
25    H9       3.7654  -34.0491   26.0108 H       1  LIG   0.0519   0.0000 
26    O1      -1.2400  -35.9060   23.9770 O.2     1  LIG  -0.6361  -0.5700 
27    C13      2.3440  -38.7570   21.0360 C.3     1  LIG   0.1354   0.0690 
28    H10      3.1238  -38.3754   20.4296 H       1  LIG   0.0981   0.1000 
29    C14      2.9380  -39.8900   21.8010 C.3     1  LIG  -0.1181  -0.2000 
30    H11      3.8890  -40.1268   21.3997 H       1  LIG   0.0732   0.1000 
31    H12      3.0430  -39.6129   22.8177 H       1  LIG   0.0789   0.1000 
32    C15      1.6390  -40.0610   21.0880 C.3     1  LIG  -0.1196  -0.2000 
33    H13      0.6832  -39.9283   21.5242 H       1  LIG   0.0807   0.1000 
34    H14      1.5292  -40.4423   20.1061 H       1  LIG   0.0733   0.1000 
@<TRIPOS>BOND
1     2     1     ar
2     3     2     1
3     4     2     ar
4     5     4     1
5     6     4     ar
6     7     6     ar
7     8     7     1
8     9     8     1
9     10    8     1
10    11    10    1
11    12    11    ar
12    13    12    1
13    14    12    ar
14    15    14    1
15    16    14    ar
16    17    16    1
17    18    16    ar
18    19    11    ar
19    19    18    ar
20    20    19    1
21    21    1     ar
22    21    7     ar
23    21    20    1
24    22    6     1
25    23    22    1
26    24    22    1
27    25    22    1
28    26    10    2
29    27    20    1
30    28    27    1
31    29    27    1
32    30    29    1
33    31    29    1
34    32    27    1
35    32    29    1
36    33    32    1
37    34    32    1
@<TRIPOS>SUBSTRUCTURE
1   LIG    1    
 
########## Name        : 1VRT.lig
########## Description : AM1BCC_CHARGES =  -0.0002 ORIGINAL_CHARGES =  -0.0000

@<TRIPOS>MOLECULE
1VRT.lig
34    37    1     0     0    
SMALL
USER_CHARGES
@<TRIPOS>ATOM
1     N1       4.0540  -36.9310   22.2210 N.ar    1  LIG  -0.6650  -0.6200 
2     C1       4.9660  -36.2380   22.9390 C.ar    1  LIG   0.3947   0.1600 
3     H1       6.0082  -36.2811   22.6707 H       1  LIG   0.0281   0.1500 
4     C2       4.6240  -35.4500   24.0360 C.ar    1  LIG  -0.2334  -0.1500 
5     H2       5.3884  -34.9151   24.5740 H       1  LIG   0.1480   0.1500 
6     C3       3.3050  -35.3690   24.4150 C.ar    1  LIG  -0.0698  -0.1435 
7     C4       2.3460  -36.0770   23.6860 C.ar    1  LIG  -0.0398   0.1170 
8     N2       0.9890  -36.0280   24.1030 N.am    1  LIG  -0.4596  -0.5470 
9     H3       0.7643  -35.9928   25.0860 H       1  LIG   0.3311   0.3700 
10    C5      -0.1450  -36.0180   23.4080 C.2     1  LIG   0.7361   0.5438 
11    C6      -0.1190  -36.0770   21.8860 C.ar    1  LIG  -0.2550   0.0862 
12    C7      -1.1230  -35.3990   21.1890 C.ar    1  LIG  -0.0321  -0.1500 
13    H4      -1.7552  -34.6955   21.7041 H       1  LIG   0.1623   0.1500 
14    C8      -1.2960  -35.6300   19.8690 C.ar    1  LIG  -0.2723  -0.1500 
15    H5      -2.0662  -35.1073   19.3273 H       1  LIG   0.1522   0.1500 
16    C9      -0.4670  -36.5450   19.2400 C.ar    1  LIG   0.4373   0.1600 
17    H6      -0.5947  -36.7554   18.1915 H       1  LIG   0.0280   0.1500 
18    N3       0.5220  -37.2120   19.8740 N.ar    1  LIG  -0.6893  -0.6200 
19    C10      0.7040  -36.9790   21.1800 C.ar    1  LIG   0.6480   0.4100 
20    N4       1.7670  -37.6730   21.8260 N.pl3   1  LIG  -0.6924  -0.3690 
21    C11      2.7540  -36.8570   22.5840 C.ar    1  LIG   0.5805   0.4100 
22    C12      2.9040  -34.5090   25.6010 C.3     1  LIG  -0.0620   0.1435 
23    H7       2.2235  -33.7630   25.2820 H       1  LIG   0.0570   0.0000 
24    H8       2.4436  -35.1154   26.3371 H       1  LIG   0.0495   0.0000 
25    H9       3.7654  -34.0491   26.0108 H       1  LIG   0.0519   0.0000 
26    O1      -1.2400  -35.9060   23.9770 O.2     1  LIG  -0.6361  -0.5700 
27    C13      2.3440  -38.7570   21.0360 C.3     1  LIG   0.1354   0.0690 
28    H10      3.1238  -38.3754   20.4296 H       1  LIG   0.0981   0.1000 
29    C14      2.9380  -39.8900   21.8010 C.3     1  LIG  -0.1181  -0.2000 
30    H11      3.8890  -40.1268   21.3997 H       1  LIG   0.0732   0.1000 
31    H12      3.0430  -39.6129   22.8177 H       1  LIG   0.0789   0.1000 
32    C15      1.6390  -40.0610   21.0880 C.3     1  LIG  -0.1196  -0.2000 
33    H13      0.6832  -39.9283   21.5242 H       1  LIG   0.0807   0.1000 
34    H14      1.5292  -40.4423   20.1061 H       1  LIG   0.0733   0.1000 
@<TRIPOS>BOND
1     2     1     ar
2     3     2     1
3     4     2     ar
4     5     4     1
5     6     4     ar
6     7     6     ar
7     8     7     1
8     9     8     1
9     10    8     1
10    11    10    1
11    12    11    ar
12    13    12    1
13    14    12    ar
14    15    14    1
15    16    14    ar
16    17    16    1
17    18    16    ar
18    19    11    ar
19    19    18    ar
20    20    19    1
21    21    1     ar
22    21    7     ar
23    21    20    1
24    22    6     1
25    23    22    1
26    24    22    1
27    25    22    1
28    26    10    2
29    27    20    1
30    28    27    1
31    29    27    1
32    30    29    1
33    31    29    1
34    32    27    1
35    32    29    1
36    33    32    1
37    34    32    1
@<TRIPOS>SUBSTRUCTURE
1   LIG    1    
 
########## Name        : 1VRT.lig
########## Description : AM1BCC_CHARGES =  -0.0002 ORIGINAL_CHARGES =  -0.0000

@<TRIPOS>MOLECULE
1VRT.lig
34    37    1     0     0    
SMALL
USER_CHARGES
@<TRIPOS>ATOM
1     N1       4.0540  -36.9310   22.2210 N.ar    1  LIG  -0.6650  -0.6200 
2     C1       4.9660  -36.2380   22.9390 C.ar    1  LIG   0.3947   0.1600 
3     H1       6.0082  -36.2811   22.6707 H       1  LIG   0.0281   0.1500 
4     C2       4.6240  -35.4500   24.0360 C.ar    1  LIG  -0.2334  -0.1500 
5     H2       5.3884  -34.9151   24.5740 H       1  LIG   0.1480   0.1500 
6     C3       3.3050  -35.3690   24.4150 C.ar    1  LIG  -0.0698  -0.1435 
7     C4       2.3460  -36.0770   23.6860 C.ar    1  LIG  -0.0398   0.1170 
8     N2       0.9890  -36.0280   24.1030 N.am    1  LIG  -0.4596  -0.5470 
9     H3       0.7643  -35.9928   25.0860 H       1  LIG   0.3311   0.3700 
10    C5      -0.1450  -36.0180   23.4080 C.2     1  LIG   0.7361   0.5438 
11    C6      -0.1190  -36.0770   21.8860 C.ar    1  LIG  -0.2550   0.0862 
12    C7      -1.1230  -35.3990   21.1890 C.ar    1  LIG  -0.0321  -0.1500 
13    H4      -1.7552  -34.6955   21.7041 H       1  LIG   0.1623   0.1500 
14    C8      -1.2960  -35.6300   19.8690 C.ar    1  LIG  -0.2723  -0.1500 
15    H5      -2.0662  -35.1073   19.3273 H       1  LIG   0.1522   0.1500 
16    C9      -0.4670  -36.5450   19.2400 C.ar    1  LIG   0.4373   0.1600 
17    H6      -0.5947  -36.7554   18.1915 H       1  LIG   0.0280   0.1500 
18    N3       0.5220  -37.2120   19.8740 N.ar    1  LIG  -0.6893  -0.6200 
19    C10      0.7040  -36.9790   21.1800 C.ar    1  LIG   0.6480   0.4100 
20    N4       1.7670  -37.6730   21.8260 N.pl3   1  LIG  -0.6924  -0.3690 
21    C11      2.7540  -36.8570   22.5840 C.ar    1  LIG   0.5805   0.4100 
22    C12      2.9040  -34.5090   25.6010 C.3     1  LIG  -0.0620   0.1435 
23    H7       2.2235  -33.7630   25.2820 H       1  LIG   0.0570   0.0000 
24    H8       2.4436  -35.1154   26.3371 H       1  LIG   0.0495   0.0000 
25    H9       3.7654  -34.0491   26.0108 H       1  LIG   0.0519   0.0000 
26    O1      -1.2400  -35.9060   23.9770 O.2     1  LIG  -0.6361  -0.5700 
27    C13      2.3440  -38.7570   21.0360 C.3     1  LIG   0.1354   0.0690 
28    H10      3.1238  -38.3754   20.4296 H       1  LIG   0.0981   0.1000 
29    C14      2.9380  -39.8900   21.8010 C.3     1  LIG  -0.1181  -0.2000 
30    H11      3.8890  -40.1268   21.3997 H       1  LIG   0.0732   0.1000 
31    H12      3.0430  -39.6129   22.8177 H       1  LIG   0.0789   0.1000 
32    C15      1.6390  -40.0610   21.0880 C.3     1  LIG  -0.1196  -0.2000 
33    H13      0.6832  -39.9283   21.5242 H       1  LIG   0.0807   0.1000 
34    H14      1.5292  -40.4423   20.1061 H       1  LIG   0.0733   0.1000 
@<TRIPOS>BOND
1     2     1     ar
2     3     2     1
3     4     2     ar
4     5     4     1
5     6     4     ar
6     7     6     ar
7     8     7     1
8     9     8     1
9     10    8     1
10    11    10    1
11    12    11    ar
12    13    12    1
13    14    12    ar
14    15    14    1
15    16    14    ar
16    17    16    1
17    18    16    ar
18    19    11    ar
19    19    18    ar
20    20    19    1
21    21    1     ar
22    21    7     ar
23    21    20    1
24    22    6     1
25    23    22    1
26    24    22    1
27    25    22    1
28    26    10    2
29    27    20    1
30    28    27    1
31    29    27    1
32    30    29    1
33    31    29    1
34    32    27    1
35    32    29    1
36    33    32    1
37    34    32    1
@<TRIPOS>SUBSTRUCTURE
1   LIG    1    
 
########## Name        : 1VRT.lig
########## Description : AM1BCC_CHARGES =  -0.0002 ORIGINAL_CHARGES =  -0.0000

@<TRIPOS>MOLECULE
1VRT.lig
34    37    1     0     0    
SMALL
USER_CHARGES
@<TRIPOS>ATOM
1     N1       4.0540  -36.9310   22.2210 N.ar    1  LIG  -0.6650  -0.6200 
2     C1       4.9660  -36.2380   22.9390 C.ar    1  LIG   0.3947   0.1600 
3     H1       6.0082  -36.2811   22.6707 H       1  LIG   0.0281   0.1500 
4     C2       4.6240  -35.4500   24.0360 C.ar    1  LIG  -0.2334  -0.1500 
5     H2       5.3884  -34.9151   24.5740 H       1  LIG   0.1480   0.1500 
6     C3       3.3050  -35.3690   24.4150 C.ar    1  LIG  -0.0698  -0.1435 
7     C4       2.3460  -36.0770   23.6860 C.ar    1  LIG  -0.0398   0.1170 
8     N2       0.9890  -36.0280   24.1030 N.am    1  LIG  -0.4596  -0.5470 
9     H3       0.7643  -35.9928   25.0860 H       1  LIG   0.3311   0.3700 
10    C5      -0.1450  -36.0180   23.4080 C.2     1  LIG   0.7361   0.5438 
11    C6      -0.1190  -36.0770   21.8860 C.ar    1  LIG  -0.2550   0.0862 
12    C7      -1.1230  -35.3990   21.1890 C.ar    1  LIG  -0.0321  -0.1500 
13    H4      -1.7552  -34.6955   21.7041 H       1  LIG   0.1623   0.1500 
14    C8      -1.2960  -35.6300   19.8690 C.ar    1  LIG  -0.2723  -0.1500 
15    H5      -2.0662  -35.1073   19.3273 H       1  LIG   0.1522   0.1500 
16    C9      -0.4670  -36.5450   19.2400 C.ar    1  LIG   0.4373   0.1600 
17    H6      -0.5947  -36.7554   18.1915 H       1  LIG   0.0280   0.1500 
18    N3       0.5220  -37.2120   19.8740 N.ar    1  LIG  -0.6893  -0.6200 
19    C10      0.7040  -36.9790   21.1800 C.ar    1  LIG   0.6480   0.4100 
20    N4       1.7670  -37.6730   21.8260 N.pl3   1  LIG  -0.6924  -0.3690 
21    C11      2.7540  -36.8570   22.5840 C.ar    1  LIG   0.5805   0.4100 
22    C12      2.9040  -34.5090   25.6010 C.3     1  LIG  -0.0620   0.1435 
23    H7       2.2235  -33.7630   25.2820 H       1  LIG   0.0570   0.0000 
24    H8       2.4436  -35.1154   26.3371 H       1  LIG   0.0495   0.0000 
25    H9       3.7654  -34.0491   26.0108 H       1  LIG   0.0519   0.0000 
26    O1      -1.2400  -35.9060   23.9770 O.2     1  LIG  -0.6361  -0.5700 
27    C13      2.3440  -38.7570   21.0360 C.3     1  LIG   0.1354   0.0690 
28    H10      3.1238  -38.3754   20.4296 H       1  LIG   0.0981   0.1000 
29    C14      2.9380  -39.8900   21.8010 C.3     1  LIG  -0.1181  -0.2000 
30    H11      3.8890  -40.1268   21.3997 H       1  LIG   0.0732   0.1000 
31    H12      3.0430  -39.6129   22.8177 H       1  LIG   0.0789   0.1000 
32    C15      1.6390  -40.0610   21.0880 C.3     1  LIG  -0.1196  -0.2000 
33    H13      0.6832  -39.9283   21.5242 H       1  LIG   0.0807   0.1000 
34    H14      1.5292  -40.4423   20.1061 H       1  LIG   0.0733   0.1000 
@<TRIPOS>BOND
1     2     1     ar
2     3     2     1
3     4     2     ar
4     5     4     1
5     6     4     ar
6     7     6     ar
7     8     7     1
8     9     8     1
9     10    8     1
10    11    10    1
11    12    11    ar
12    13    12    1
13    14    12    ar
14    15    14    1
15    16    14    ar
16    17    16    1
17    18    16    ar
18    19    11    ar
19    19    18    ar
20    20    19    1
21    21    1     ar
22    21    7     ar
23    21    20    1
24    22    6     1
25    23    22    1
26    24    22    1
27    25    22    1
28    26    10    2
29    27    20    1
30    28    27    1
31    29    27    1
32    30    29    1
33    31    29    1
34    32    27    1
35    32    29    1
36    33    32    1
37    34    32    1
@<TRIPOS>SUBSTRUCTURE
1   LIG    1    
 
########## Name        : 1VRT.lig
########## Description : AM1BCC_CHARGES =  -0.0002 ORIGINAL_CHARGES =  -0.0000

@<TRIPOS>MOLECULE
1VRT.lig
34    37    1     0     0    
SMALL
USER_CHARGES
@<TRIPOS>ATOM
1     N1       4.0540  -36.9310   22.2210 N.ar    1  LIG  -0.6650  -0.6200 
2     C1       4.9660  -36.2380   22.9390 C.ar    1  LIG   0.3947   0.1600 
3     H1       6.0082  -36.2811   22.6707 H       1  LIG   0.0281   0.1500 
4     C2       4.6240  -35.4500   24.0360 C.ar    1  LIG  -0.2334  -0.1500 
5     H2       5.3884  -34.9151   24.5740 H       1  LIG   0.1480   0.1500 
6     C3       3.3050  -35.3690   24.4150 C.ar    1  LIG  -0.0698  -0.1435 
7     C4       2.3460  -36.0770   23.6860 C.ar    1  LIG  -0.0398   0.1170 
8     N2       0.9890  -36.0280   24.1030 N.am    1  LIG  -0.4596  -0.5470 
9     H3       0.7643  -35.9928   25.0860 H       1  LIG   0.3311   0.3700 
10    C5      -0.1450  -36.0180   23.4080 C.2     1  LIG   0.7361   0.5438 
11    C6      -0.1190  -36.0770   21.8860 C.ar    1  LIG  -0.2550   0.0862 
12    C7      -1.1230  -35.3990   21.1890 C.ar    1  LIG  -0.0321  -0.1500 
13    H4      -1.7552  -34.6955   21.7041 H       1  LIG   0.1623   0.1500 
14    C8      -1.2960  -35.6300   19.8690 C.ar    1  LIG  -0.2723  -0.1500 
15    H5      -2.0662  -35.1073   19.3273 H       1  LIG   0.1522   0.1500 
16    C9      -0.4670  -36.5450   19.2400 C.ar    1  LIG   0.4373   0.1600 
17    H6      -0.5947  -36.7554   18.1915 H       1  LIG   0.0280   0.1500 
18    N3       0.5220  -37.2120   19.8740 N.ar    1  LIG  -0.6893  -0.6200 
19    C10      0.7040  -36.9790   21.1800 C.ar    1  LIG   0.6480   0.4100 
20    N4       1.7670  -37.6730   21.8260 N.pl3   1  LIG  -0.6924  -0.3690 
21    C11      2.7540  -36.8570   22.5840 C.ar    1  LIG   0.5805   0.4100 
22    C12      2.9040  -34.5090   25.6010 C.3     1  LIG  -0.0620   0.1435 
23    H7       2.2235  -33.7630   25.2820 H       1  LIG   0.0570   0.0000 
24    H8       2.4436  -35.1154   26.3371 H       1  LIG   0.0495   0.0000 
25    H9       3.7654  -34.0491   26.0108 H       1  LIG   0.0519   0.0000 
26    O1      -1.2400  -35.9060   23.9770 O.2     1  LIG  -0.6361  -0.5700 
27    C13      2.3440  -38.7570   21.0360 C.3     1  LIG   0.1354   0.0690 
28    H10      3.1238  -38.3754   20.4296 H       1  LIG   0.0981   0.1000 
29    C14      2.9380  -39.8900   21.8010 C.3     1  LIG  -0.1181  -0.2000 
30    H11      3.8890  -40.1268   21.3997 H       1  LIG   0.0732   0.1000 
31    H12      3.0430  -39.6129   22.8177 H       1  LIG   0.0789   0.1000 
32    C15      1.6390  -40.0610   21.0880 C.3     1  LIG  -0.1196  -0.2000 
33    H13      0.6832  -39.9283   21.5242 H       1  LIG   0.0807   0.1000 
34    H14      1.5292  -40.4423   20.1061 H       1  LIG   0.0733   0.1000 
@<TRIPOS>BOND
1     2     1     ar
2     3     2     1
3     4     2     ar
4     5     4     1
5     6     4     ar
6     7     6     ar
7     8     7     1
8     9     8     1
9     10    8     1
10    11    10    1
11    12    11    ar
12    13    12    1
13    14    12    ar
14    15    14    1
15    16    14    ar
16    17    16    1
17    18    16    ar
18    19    11    ar
19    19    18    ar
20    20    19    1
21    21    1     ar
22    21    7     ar
23    21    20    1
24    22    6     1
25    23    22    1
26    24    22    1
27    25    22    1
28    26    10    2
29    27    20    1
30    28    27    1
31    29    27    1
32    30    29    1
33    31    29    1
34    32    27    1
35    32    29    1
36    33    32    1
37    34    32    1
@<TRIPOS>SUBSTRUCTURE
1   LIG    1    
 
########## Name        : 1VRT.lig
########## Description : AM1BCC_CHARGES =  -0.0002 ORIGINAL_CHARGES =  -0.0000

@<TRIPOS>MOLECULE
1VRT.lig
34    37    1     0     0    
SMALL
USER_CHARGES
@<TRIPOS>ATOM
1     N1       4.0540  -36.9310   22.2210 N.ar    1  LIG  -0.6650  -0.6200 
2     C1       4.9660  -36.2380   22.9390 C.ar    1  LIG   0.3947   0.1600 
3     H1       6.0082  -36.2811   22.6707 H       1  LIG   0.0281   0.1500 
4     C2       4.6240  -35.4500   24.0360 C.ar    1  LIG  -0.2334  -0.1500 
5     H2       5.3884  -34.9151   24.5740 H       1  LIG   0.1480   0.1500 
6     C3       3.3050  -35.3690   24.4150 C.ar    1  LIG  -0.0698  -0.1435 
7     C4       2.3460  -36.0770   23.6860 C.ar    1  LIG  -0.0398   0.1170 
8     N2       0.9890  -36.0280   24.1030 N.am    1  LIG  -0.4596  -0.5470 
9     H3       0.7643  -35.9928   25.0860 H       1  LIG   0.3311   0.3700 
10    C5      -0.1450  -36.0180   23.4080 C.2     1  LIG   0.7361   0.5438 
11    C6      -0.1190  -36.0770   21.8860 C.ar    1  LIG  -0.2550   0.0862 
12    C7      -1.1230  -35.3990   21.1890 C.ar    1  LIG  -0.0321  -0.1500 
13    H4      -1.7552  -34.6955   21.7041 H       1  LIG   0.1623   0.1500 
14    C8      -1.2960  -35.6300   19.8690 C.ar    1  LIG  -0.2723  -0.1500 
15    H5      -2.0662  -35.1073   19.3273 H       1  LIG   0.1522   0.1500 
16    C9      -0.4670  -36.5450   19.2400 C.ar    1  LIG   0.4373   0.1600 
17    H6      -0.5947  -36.7554   18.1915 H       1  LIG   0.0280   0.1500 
18    N3       0.5220  -37.2120   19.8740 N.ar    1  LIG  -0.6893  -0.6200 
19    C10      0.7040  -36.9790   21.1800 C.ar    1  LIG   0.6480   0.4100 
20    N4       1.7670  -37.6730   21.8260 N.pl3   1  LIG  -0.6924  -0.3690 
21    C11      2.7540  -36.8570   22.5840 C.ar    1  LIG   0.5805   0.4100 
22    C12      2.9040  -34.5090   25.6010 C.3     1  LIG  -0.0620   0.1435 
23    H7       2.2235  -33.7630   25.2820 H       1  LIG   0.0570   0.0000 
24    H8       2.4436  -35.1154   26.3371 H       1  LIG   0.0495   0.0000 
25    H9       3.7654  -34.0491   26.0108 H       1  LIG   0.0519   0.0000 
26    O1      -1.2400  -35.9060   23.9770 O.2     1  LIG  -0.6361  -0.5700 
27    C13      2.3440  -38.7570   21.0360 C.3     1  LIG   0.1354   0.0690 
28    H10      3.1238  -38.3754   20.4296 H       1  LIG   0.0981   0.1000 
29    C14      2.9380  -39.8900   21.8010 C.3     1  LIG  -0.1181  -0.2000 
30    H11      3.8890  -40.1268   21.3997 H       1  LIG   0.0732   0.1000 
31    H12      3.0430  -39.6129   22.8177 H       1  LIG   0.0789   0.1000 
32    C15      1.6390  -40.0610   21.0880 C.3     1  LIG  -0.1196  -0.2000 
33    H13      0.6832  -39.9283   21.5242 H       1  LIG   0.0807   0.1000 
34    H14      1.5292  -40.4423   20.1061 H       1  LIG   0.0733   0.1000 
@<TRIPOS>BOND
1     2     1     ar
2     3     2     1
3     4     2     ar
4     5     4     1
5     6     4     ar
6     7     6     ar
7     8     7     1
8     9     8     1
9     10    8     1
10    11    10    1
11    12    11    ar
12    13    12    1
13    14    12    ar
14    15    14    1
15    16    14    ar
16    17    16    1
17    18    16    ar
18    19    11    ar
19    19    18    ar
20    20    19    1
21    21    1     ar
22    21    7     ar
23    21    20    1
24    22    6     1
25    23    22    1
26    24    22    1
27    25    22    1
28    26    10    2
29    27    20    1
30    28    27    1
31    29    27    1
32    30    29    1
33    31    29    1
34    32    27    1
35    32    29    1
36    33    32    1
37    34    32    1
@<TRIPOS>SUBSTRUCTURE
1   LIG    1    
 
########## Name        : 1VRT.lig
########## Description : AM1BCC_CHARGES =  -0.0002 ORIGINAL_CHARGES =  -0.0000

@<TRIPOS>MOLECULE
1VRT.lig
34    37    1     0     0    
SMALL
USER_CHARGES
@<TRIPOS>ATOM
1     N1       4.0540  -36.9310   22.2210 N.ar    1  LIG  -0.6650  -0.6200 
2     C1       4.9660  -36.2380   22.9390 C.ar    1  LIG   0.3947   0.1600 
3     H1       6.0082  -36.2811   22.6707 H       1  LIG   0.0281   0.1500 
4     C2       4.6240  -35.4500   24.0360 C.ar    1  LIG  -0.2334  -0.1500 
5     H2       5.3884  -34.9151   24.5740 H       1  LIG   0.1480   0.1500 
6     C3       3.3050  -35.3690   24.4150 C.ar    1  LIG  -0.0698  -0.1435 
7     C4       2.3460  -36.0770   23.6860 C.ar    1  LIG  -0.0398   0.1170 
8     N2       0.9890  -36.0280   24.1030 N.am    1  LIG  -0.4596  -0.5470 
9     H3       0.7643  -35.9928   25.0860 H       1  LIG   0.3311   0.3700 
10    C5      -0.1450  -36.0180   23.4080 C.2     1  LIG   0.7361   0.5438 
11    C6      -0.1190  -36.0770   21.8860 C.ar    1  LIG  -0.2550   0.0862 
12    C7      -1.1230  -35.3990   21.1890 C.ar    1  LIG  -0.0321  -0.1500 
13    H4      -1.7552  -34.6955   21.7041 H       1  LIG   0.1623   0.1500 
14    C8      -1.2960  -35.6300   19.8690 C.ar    1  LIG  -0.2723  -0.1500 
15    H5      -2.0662  -35.1073   19.3273 H       1  LIG   0.1522   0.1500 
16    C9      -0.4670  -36.5450   19.2400 C.ar    1  LIG   0.4373   0.1600 
17    H6      -0.5947  -36.7554   18.1915 H       1  LIG   0.0280   0.1500 
18    N3       0.5220  -37.2120   19.8740 N.ar    1  LIG  -0.6893  -0.6200 
19    C10      0.7040  -36.9790   21.1800 C.ar    1  LIG   0.6480   0.4100 
20    N4       1.7670  -37.6730   21.8260 N.pl3   1  LIG  -0.6924  -0.3690 
21    C11      2.7540  -36.8570   22.5840 C.ar    1  LIG   0.5805   0.4100 
22    C12      2.9040  -34.5090   25.6010 C.3     1  LIG  -0.0620   0.1435 
23    H7       2.2235  -33.7630   25.2820 H       1  LIG   0.0570   0.0000 
24    H8       2.4436  -35.1154   26.3371 H       1  LIG   0.0495   0.0000 
25    H9       3.7654  -34.0491   26.0108 H       1  LIG   0.0519   0.0000 
26    O1      -1.2400  -35.9060   23.9770 O.2     1  LIG  -0.6361  -0.5700 
27    C13      2.3440  -38.7570   21.0360 C.3     1  LIG   0.1354   0.0690 
28    H10      3.1238  -38.3754   20.4296 H       1  LIG   0.0981   0.1000 
29    C14      2.9380  -39.8900   21.8010 C.3     1  LIG  -0.1181  -0.2000 
30    H11      3.8890  -40.1268   21.3997 H       1  LIG   0.0732   0.1000 
31    H12      3.0430  -39.6129   22.8177 H       1  LIG   0.0789   0.1000 
32    C15      1.6390  -40.0610   21.0880 C.3     1  LIG  -0.1196  -0.2000 
33    H13      0.6832  -39.9283   21.5242 H       1  LIG   0.0807   0.1000 
34    H14      1.5292  -40.4423   20.1061 H       1  LIG   0.0733   0.1000 
@<TRIPOS>BOND
1     2     1     ar
2     3     2     1
3     4     2     ar
4     5     4     1
5     6     4     ar
6     7     6     ar
7     8     7     1
8     9     8     1
9     10    8     1
10    11    10    1
11    12    11    ar
12    13    12    1
13    14    12    ar
14    15    14    1
15    16    14    ar
16    17    16    1
17    18    16    ar
18    19    11    ar
19    19    18    ar
20    20    19    1
21    21    1     ar
22    21    7     ar
23    21    20    1
24    22    6     1
25    23    22    1
26    24    22    1
27    25    22    1
28    26    10    2
29    27    20    1
30    28    27    1
31    29    27    1
32    30    29    1
33    31    29    1
34    32    27    1
35    32    29    1
36    33    32    1
37    34    32    1
@<TRIPOS>SUBSTRUCTURE
1   LIG    1    
 
########## Name        : 1VRT.lig
########## Description : AM1BCC_CHARGES =  -0.0002 ORIGINAL_CHARGES =  -0.0000

@<TRIPOS>MOLECULE
1VRT.lig
34    37    1     0     0    
SMALL
USER_CHARGES
@<TRIPOS>ATOM
1     N1       4.0540  -36.9310   22.2210 N.ar    1  LIG  -0.6650  -0.6200 
2     C1       4.9660  -36.2380   22.9390 C.ar    1  LIG   0.3947   0.1600 
3     H1       6.0082  -36.2811   22.6707 H       1  LIG   0.0281   0.1500 
4     C2       4.6240  -35.4500   24.0360 C.ar    1  LIG  -0.2334  -0.1500 
5     H2       5.3884  -34.9151   24.5740 H       1  LIG   0.1480   0.1500 
6     C3       3.3050  -35.3690   24.4150 C.ar    1  LIG  -0.0698  -0.1435 
7     C4       2.3460  -36.0770   23.6860 C.ar    1  LIG  -0.0398   0.1170 
8     N2       0.9890  -36.0280   24.1030 N.am    1  LIG  -0.4596  -0.5470 
9     H3       0.7643  -35.9928   25.0860 H       1  LIG   0.3311   0.3700 
10    C5      -0.1450  -36.0180   23.4080 C.2     1  LIG   0.7361   0.5438 
11    C6      -0.1190  -36.0770   21.8860 C.ar    1  LIG  -0.2550   0.0862 
12    C7      -1.1230  -35.3990   21.1890 C.ar    1  LIG  -0.0321  -0.1500 
13    H4      -1.7552  -34.6955   21.7041 H       1  LIG   0.1623   0.1500 
14    C8      -1.2960  -35.6300   19.8690 C.ar    1  LIG  -0.2723  -0.1500 
15    H5      -2.0662  -35.1073   19.3273 H       1  LIG   0.1522   0.1500 
16    C9      -0.4670  -36.5450   19.2400 C.ar    1  LIG   0.4373   0.1600 
17    H6      -0.5947  -36.7554   18.1915 H       1  LIG   0.0280   0.1500 
18    N3       0.5220  -37.2120   19.8740 N.ar    1  LIG  -0.6893  -0.6200 
19    C10      0.7040  -36.9790   21.1800 C.ar    1  LIG   0.6480   0.4100 
20    N4       1.7670  -37.6730   21.8260 N.pl3   1  LIG  -0.6924  -0.3690 
21    C11      2.7540  -36.8570   22.5840 C.ar    1  LIG   0.5805   0.4100 
22    C12      2.9040  -34.5090   25.6010 C.3     1  LIG  -0.0620   0.1435 
23    H7       2.2235  -33.7630   25.2820 H       1  LIG   0.0570   0.0000 
24    H8       2.4436  -35.1154   26.3371 H       1  LIG   0.0495   0.0000 
25    H9       3.7654  -34.0491   26.0108 H       1  LIG   0.0519   0.0000 
26    O1      -1.2400  -35.9060   23.9770 O.2     1  LIG  -0.6361  -0.5700 
27    C13      2.3440  -38.7570   21.0360 C.3     1  LIG   0.1354   0.0690 
28    H10      3.1238  -38.3754   20.4296 H       1  LIG   0.0981   0.1000 
29    C14      2.9380  -39.8900   21.8010 C.3     1  LIG  -0.1181  -0.2000 
30    H11      3.8890  -40.1268   21.3997 H       1  LIG   0.0732   0.1000 
31    H12      3.0430  -39.6129   22.8177 H       1  LIG   0.0789   0.1000 
32    C15      1.6390  -40.0610   21.0880 C.3     1  LIG  -0.1196  -0.2000 
33    H13      0.6832  -39.9283   21.5242 H       1  LIG   0.0807   0.1000 
34    H14      1.5292  -40.4423   20.1061 H       1  LIG   0.0733   0.1000 
@<TRIPOS>BOND
1     2     1     ar
2     3     2     1
3     4     2     ar
4     5     4     1
5     6     4     ar
6     7     6     ar
7     8     7     1
8     9     8     1
9     10    8     1
10    11    10    1
11    12    11    ar
12    13    12    1
13    14    12    ar
14    15    14    1
15    16    14    ar
16    17    16    1
17    18    16    ar
18    19    11    ar
19    19    18    ar
20    20    19    1
21    21    1     ar
22    21    7     ar
23    21    20    1
24    22    6     1
25    23    22    1
26    24    22    1
27    25    22    1
28    26    10    2
29    27    20    1
30    28    27    1
31    29    27    1
32    30    29    1
33    31    29    1
34    32    27    1
35    32    29    1
36    33    32    1
37    34    32    1
@<TRIPOS>SUBSTRUCTURE
1   LIG    1    
 
########## Name        : 1VRT.lig
########## Description : AM1BCC_CHARGES =  -0.0002 ORIGINAL_CHARGES =  -0.0000

@<TRIPOS>MOLECULE
1VRT.lig
34    37    1     0     0    
SMALL
USER_CHARGES
@<TRIPOS>ATOM
1     N1       4.0540  -36.9310   22.2210 N.ar    1  LIG  -0.6650  -0.6200 
2     C1       4.9660  -36.2380   22.9390 C.ar    1  LIG   0.3947   0.1600 
3     H1       6.0082  -36.2811   22.6707 H       1  LIG   0.0281   0.1500 
4     C2       4.6240  -35.4500   24.0360 C.ar    1  LIG  -0.2334  -0.1500 
5     H2       5.3884  -34.9151   24.5740 H       1  LIG   0.1480   0.1500 
6     C3       3.3050  -35.3690   24.4150 C.ar    1  LIG  -0.0698  -0.1435 
7     C4       2.3460  -36.0770   23.6860 C.ar    1  LIG  -0.0398   0.1170 
8     N2       0.9890  -36.0280   24.1030 N.am    1  LIG  -0.4596  -0.5470 
9     H3       0.7643  -35.9928   25.0860 H       1  LIG   0.3311   0.3700 
10    C5      -0.1450  -36.0180   23.4080 C.2     1  LIG   0.7361   0.5438 
11    C6      -0.1190  -36.0770   21.8860 C.ar    1  LIG  -0.2550   0.0862 
12    C7      -1.1230  -35.3990   21.1890 C.ar    1  LIG  -0.0321  -0.1500 
13    H4      -1.7552  -34.6955   21.7041 H       1  LIG   0.1623   0.1500 
14    C8      -1.2960  -35.6300   19.8690 C.ar    1  LIG  -0.2723  -0.1500 
15    H5      -2.0662  -35.1073   19.3273 H       1  LIG   0.1522   0.1500 
16    C9      -0.4670  -36.5450   19.2400 C.ar    1  LIG   0.4373   0.1600 
17    H6      -0.5947  -36.7554   18.1915 H       1  LIG   0.0280   0.1500 
18    N3       0.5220  -37.2120   19.8740 N.ar    1  LIG  -0.6893  -0.6200 
19    C10      0.7040  -36.9790   21.1800 C.ar    1  LIG   0.6480   0.4100 
20    N4       1.7670  -37.6730   21.8260 N.pl3   1  LIG  -0.6924  -0.3690 
21    C11      2.7540  -36.8570   22.5840 C.ar    1  LIG   0.5805   0.4100 
22    C12      2.9040  -34.5090   25.6010 C.3     1  LIG  -0.0620   0.1435 
23    H7       2.2235  -33.7630   25.2820 H       1  LIG   0.0570   0.0000 
24    H8       2.4436  -35.1154   26.3371 H       1  LIG   0.0495   0.0000 
25    H9       3.7654  -34.0491   26.0108 H       1  LIG   0.0519   0.0000 
26    O1      -1.2400  -35.9060   23.9770 O.2     1  LIG  -0.6361  -0.5700 
27    C13      2.3440  -38.7570   21.0360 C.3     1  LIG   0.1354   0.0690 
28    H10      3.1238  -38.3754   20.4296 H       1  LIG   0.0981   0.1000 
29    C14      2.9380  -39.8900   21.8010 C.3     1  LIG  -0.1181  -0.2000 
30    H11      3.8890  -40.1268   21.3997 H       1  LIG   0.0732   0.1000 
31    H12      3.0430  -39.6129   22.8177 H       1  LIG   0.0789   0.1000 
32    C15      1.6390  -40.0610   21.0880 C.3     1  LIG  -0.1196  -0.2000 
33    H13      0.6832  -39.9283   21.5242 H       1  LIG   0.0807   0.1000 
34    H14      1.5292  -40.4423   20.1061 H       1  LIG   0.0733   0.1000 
@<TRIPOS>BOND
1     2     1     ar
2     3     2     1
3     4     2     ar
4     5     4     1
5     6     4     ar
6     7     6     ar
7     8     7     1
8     9     8     1
9     10    8     1
10    11    10    1
11    12    11    ar
12    13    12    1
13    14    12    ar
14    15    14    1
15    16    14    ar
16    17    16    1
17    18    16    ar
18    19    11    ar
19    19    18    ar
20    20    19    1
21    21    1     ar
22    21    7     ar
23    21    20    1
24    22    6     1
25    23    22    1
26    24    22    1
27    25    22    1
28    26    10    2
29    27    20    1
30    28    27    1
31    29    27    1
32    30    29    1
33    31    29    1
34    32    27    1
35    32    29    1
36    33    32    1
37    34    32    1
@<TRIPOS>SUBSTRUCTURE
1   LIG    1    
 
########## Name        : 1VRT.lig
########## Description : AM1BCC_CHARGES =  -0.0002 ORIGINAL_CHARGES =  -0.0000

@<TRIPOS>MOLECULE
1VRT.lig
34    37    1     0     0    
SMALL
USER_CHARGES
@<TRIPOS>ATOM
1     N1       4.0540  -36.9310   22.2210 N.ar    1  LIG  -0.6650  -0.6200 
2     C1       4.9660  -36.2380   22.9390 C.ar    1  LIG   0.3947   0.1600 
3     H1       6.0082  -36.2811   22.6707 H       1  LIG   0.0281   0.1500 
4     C2       4.6240  -35.4500   24.0360 C.ar    1  LIG  -0.2334  -0.1500 
5     H2       5.3884  -34.9151   24.5740 H       1  LIG   0.1480   0.1500 
6     C3       3.3050  -35.3690   24.4150 C.ar    1  LIG  -0.0698  -0.1435 
7     C4       2.3460  -36.0770   23.6860 C.ar    1  LIG  -0.0398   0.1170 
8     N2       0.9890  -36.0280   24.1030 N.am    1  LIG  -0.4596  -0.5470 
9     H3       0.7643  -35.9928   25.0860 H       1  LIG   0.3311   0.3700 
10    C5      -0.1450  -36.0180   23.4080 C.2     1  LIG   0.7361   0.5438 
11    C6      -0.1190  -36.0770   21.8860 C.ar    1  LIG  -0.2550   0.0862 
12    C7      -1.1230  -35.3990   21.1890 C.ar    1  LIG  -0.0321  -0.1500 
13    H4      -1.7552  -34.6955   21.7041 H       1  LIG   0.1623   0.1500 
14    C8      -1.2960  -35.6300   19.8690 C.ar    1  LIG  -0.2723  -0.1500 
15    H5      -2.0662  -35.1073   19.3273 H       1  LIG   0.1522   0.1500 
16    C9      -0.4670  -36.5450   19.2400 C.ar    1  LIG   0.4373   0.1600 
17    H6      -0.5947  -36.7554   18.1915 H       1  LIG   0.0280   0.1500 
18    N3       0.5220  -37.2120   19.8740 N.ar    1  LIG  -0.6893  -0.6200 
19    C10      0.7040  -36.9790   21.1800 C.ar    1  LIG   0.6480   0.4100 
20    N4       1.7670  -37.6730   21.8260 N.pl3   1  LIG  -0.6924  -0.3690 
21    C11      2.7540  -36.8570   22.5840 C.ar    1  LIG   0.5805   0.4100 
22    C12      2.9040  -34.5090   25.6010 C.3     1  LIG  -0.0620   0.1435 
23    H7       2.2235  -33.7630   25.2820 H       1  LIG   0.0570   0.0000 
24    H8       2.4436  -35.1154   26.3371 H       1  LIG   0.0495   0.0000 
25    H9       3.7654  -34.0491   26.0108 H       1  LIG   0.0519   0.0000 
26    O1      -1.2400  -35.9060   23.9770 O.2     1  LIG  -0.6361  -0.5700 
27    C13      2.3440  -38.7570   21.0360 C.3     1  LIG   0.1354   0.0690 
28    H10      3.1238  -38.3754   20.4296 H       1  LIG   0.0981   0.1000 
29    C14      2.9380  -39.8900   21.8010 C.3     1  LIG  -0.1181  -0.2000 
30    H11      3.8890  -40.1268   21.3997 H       1  LIG   0.0732   0.1000 
31    H12      3.0430  -39.6129   22.8177 H       1  LIG   0.0789   0.1000 
32    C15      1.6390  -40.0610   21.0880 C.3     1  LIG  -0.1196  -0.2000 
33    H13      0.6832  -39.9283   21.5242 H       1  LIG   0.0807   0.1000 
34    H14      1.5292  -40.4423   20.1061 H       1  LIG   0.0733   0.1000 
@<TRIPOS>BOND
1     2     1     ar
2     3     2     1
3     4     2     ar
4     5     4     1
5     6     4     ar
6     7     6     ar
7     8     7     1
8     9     8     1
9     10    8     1
10    11    10    1
11    12    11    ar
12    13    12    1
13    14    12    ar
14    15    14    1
15    16    14    ar
16    17    16    1
17    18    16    ar
18    19    11    ar
19    19    18    ar
20    20    19    1
21    21    1     ar
22    21    7     ar
23    21    20    1
24    22    6     1
25    23    22    1
26    24    22    1
27    25    22    1
28    26    10    2
29    27    20    1
30    28    27    1
31    29    27    1
32    30    29    1
33    31    29    1
34    32    27    1
35    32    29    1
36    33    32    1
37    34    32    1
@<TRIPOS>SUBSTRUCTURE
1   LIG    1    
 
########## Name        : 1VRT.lig
########## Description : AM1BCC_CHARGES =  -0.0002 ORIGINAL_CHARGES =  -0.0000

@<TRIPOS>MOLECULE
1VRT.lig
34    37    1     0     0    
SMALL
USER_CHARGES
@<TRIPOS>ATOM
1     N1       4.0540  -36.9310   22.2210 N.ar    1  LIG  -0.6650  -0.6200 
2     C1       4.9660  -36.2380   22.9390 C.ar    1  LIG   0.3947   0.1600 
3     H1       6.0082  -36.2811   22.6707 H       1  LIG   0.0281   0.1500 
4     C2       4.6240  -35.4500   24.0360 C.ar    1  LIG  -0.2334  -0.1500 
5     H2       5.3884  -34.9151   24.5740 H       1  LIG   0.1480   0.1500 
6     C3       3.3050  -35.3690   24.4150 C.ar    1  LIG  -0.0698  -0.1435 
7     C4       2.3460  -36.0770   23.6860 C.ar    1  LIG  -0.0398   0.1170 
8     N2       0.9890  -36.0280   24.1030 N.am    1  LIG  -0.4596  -0.5470 
9     H3       0.7643  -35.9928   25.0860 H       1  LIG   0.3311   0.3700 
10    C5      -0.1450  -36.0180   23.4080 C.2     1  LIG   0.7361   0.5438 
11    C6      -0.1190  -36.0770   21.8860 C.ar    1  LIG  -0.2550   0.0862 
12    C7      -1.1230  -35.3990   21.1890 C.ar    1  LIG  -0.0321  -0.1500 
13    H4      -1.7552  -34.6955   21.7041 H       1  LIG   0.1623   0.1500 
14    C8      -1.2960  -35.6300   19.8690 C.ar    1  LIG  -0.2723  -0.1500 
15    H5      -2.0662  -35.1073   19.3273 H       1  LIG   0.1522   0.1500 
16    C9      -0.4670  -36.5450   19.2400 C.ar    1  LIG   0.4373   0.1600 
17    H6      -0.5947  -36.7554   18.1915 H       1  LIG   0.0280   0.1500 
18    N3       0.5220  -37.2120   19.8740 N.ar    1  LIG  -0.6893  -0.6200 
19    C10      0.7040  -36.9790   21.1800 C.ar    1  LIG   0.6480   0.4100 
20    N4       1.7670  -37.6730   21.8260 N.pl3   1  LIG  -0.6924  -0.3690 
21    C11      2.7540  -36.8570   22.5840 C.ar    1  LIG   0.5805   0.4100 
22    C12      2.9040  -34.5090   25.6010 C.3     1  LIG  -0.0620   0.1435 
23    H7       2.2235  -33.7630   25.2820 H       1  LIG   0.0570   0.0000 
24    H8       2.4436  -35.1154   26.3371 H       1  LIG   0.0495   0.0000 
25    H9       3.7654  -34.0491   26.0108 H       1  LIG   0.0519   0.0000 
26    O1      -1.2400  -35.9060   23.9770 O.2     1  LIG  -0.6361  -0.5700 
27    C13      2.3440  -38.7570   21.0360 C.3     1  LIG   0.1354   0.0690 
28    H10      3.1238  -38.3754   20.4296 H       1  LIG   0.0981   0.1000 
29    C14      2.9380  -39.8900   21.8010 C.3     1  LIG  -0.1181  -0.2000 
30    H11      3.8890  -40.1268   21.3997 H       1  LIG   0.0732   0.1000 
31    H12      3.0430  -39.6129   22.8177 H       1  LIG   0.0789   0.1000 
32    C15      1.6390  -40.0610   21.0880 C.3     1  LIG  -0.1196  -0.2000 
33    H13      0.6832  -39.9283   21.5242 H       1  LIG   0.0807   0.1000 
34    H14      1.5292  -40.4423   20.1061 H       1  LIG   0.0733   0.1000 
@<TRIPOS>BOND
1     2     1     ar
2     3     2     1
3     4     2     ar
4     5     4     1
5     6     4     ar
6     7     6     ar
7     8     7     1
8     9     8     1
9     10    8     1
10    11    10    1
11    12    11    ar
12    13    12    1
13    14    12    ar
14    15    14    1
15    16    14    ar
16    17    16    1
17    18    16    ar
18    19    11    ar
19    19    18    ar
20    20    19    1
21    21    1     ar
22    21    7     ar
23    21    20    1
24    22    6     1
25    23    22    1
26    24    22    1
27    25    22    1
28    26    10    2
29    27    20    1
30    28    27    1
31    29    27    1
32    30    29    1
33    31    29    1
34    32    27    1
35    32    29    1
36    33    32    1
37    34    32    1
@<TRIPOS>SUBSTRUCTURE
1   LIG    1    
 
########## Name        : 1VRT.lig
########## Description : AM1BCC_CHARGES =  -0.0002 ORIGINAL_CHARGES =  -0.0000

@<TRIPOS>MOLECULE
1VRT.lig
34    37    1     0     0    
SMALL
USER_CHARGES
@<TRIPOS>ATOM
1     N1       4.0540  -36.9310   22.2210 N.ar    1  LIG  -0.6650  -0.6200 
2     C1       4.9660  -36.2380   22.9390 C.ar    1  LIG   0.3947   0.1600 
3     H1       6.0082  -36.2811   22.6707 H       1  LIG   0.0281   0.1500 
4     C2       4.6240  -35.4500   24.0360 C.ar    1  LIG  -0.2334  -0.1500 
5     H2       5.3884  -34.9151   24.5740 H       1  LIG   0.1480   0.1500 
6     C3       3.3050  -35.3690   24.4150 C.ar    1  LIG  -0.0698  -0.1435 
7     C4       2.3460  -36.0770   23.6860 C.ar    1  LIG  -0.0398   0.1170 
8     N2       0.9890  -36.0280   24.1030 N.am    1  LIG  -0.4596  -0.5470 
9     H3       0.7643  -35.9928   25.0860 H       1  LIG   0.3311   0.3700 
10    C5      -0.1450  -36.0180   23.4080 C.2     1  LIG   0.7361   0.5438 
11    C6      -0.1190  -36.0770   21.8860 C.ar    1  LIG  -0.2550   0.0862 
12    C7      -1.1230  -35.3990   21.1890 C.ar    1  LIG  -0.0321  -0.1500 
13    H4      -1.7552  -34.6955   21.7041 H       1  LIG   0.1623   0.1500 
14    C8      -1.2960  -35.6300   19.8690 C.ar    1  LIG  -0.2723  -0.1500 
15    H5      -2.0662  -35.1073   19.3273 H       1  LIG   0.1522   0.1500 
16    C9      -0.4670  -36.5450   19.2400 C.ar    1  LIG   0.4373   0.1600 
17    H6      -0.5947  -36.7554   18.1915 H       1  LIG   0.0280   0.1500 
18    N3       0.5220  -37.2120   19.8740 N.ar    1  LIG  -0.6893  -0.6200 
19    C10      0.7040  -36.9790   21.1800 C.ar    1  LIG   0.6480   0.4100 
20    N4       1.7670  -37.6730   21.8260 N.pl3   1  LIG  -0.6924  -0.3690 
21    C11      2.7540  -36.8570   22.5840 C.ar    1  LIG   0.5805   0.4100 
22    C12      2.9040  -34.5090   25.6010 C.3     1  LIG  -0.0620   0.1435 
23    H7       2.2235  -33.7630   25.2820 H       1  LIG   0.0570   0.0000 
24    H8       2.4436  -35.1154   26.3371 H       1  LIG   0.0495   0.0000 
25    H9       3.7654  -34.0491   26.0108 H       1  LIG   0.0519   0.0000 
26    O1      -1.2400  -35.9060   23.9770 O.2     1  LIG  -0.6361  -0.5700 
27    C13      2.3440  -38.7570   21.0360 C.3     1  LIG   0.1354   0.0690 
28    H10      3.1238  -38.3754   20.4296 H       1  LIG   0.0981   0.1000 
29    C14      2.9380  -39.8900   21.8010 C.3     1  LIG  -0.1181  -0.2000 
30    H11      3.8890  -40.1268   21.3997 H       1  LIG   0.0732   0.1000 
31    H12      3.0430  -39.6129   22.8177 H       1  LIG   0.0789   0.1000 
32    C15      1.6390  -40.0610   21.0880 C.3     1  LIG  -0.1196  -0.2000 
33    H13      0.6832  -39.9283   21.5242 H       1  LIG   0.0807   0.1000 
34    H14      1.5292  -40.4423   20.1061 H       1  LIG   0.0733   0.1000 
@<TRIPOS>BOND
1     2     1     ar
2     3     2     1
3     4     2     ar
4     5     4     1
5     6     4     ar
6     7     6     ar
7     8     7     1
8     9     8     1
9     10    8     1
10    11    10    1
11    12    11    ar
12    13    12    1
13    14    12    ar
14    15    14    1
15    16    14    ar
16    17    16    1
17    18    16    ar
18    19    11    ar
19    19    18    ar
20    20    19    1
21    21    1     ar
22    21    7     ar
23    21    20    1
24    22    6     1
25    23    22    1
26    24    22    1
27    25    22    1
28    26    10    2
29    27    20    1
30    28    27    1
31    29    27    1
32    30    29    1
33    31    29    1
34    32    27    1
35    32    29    1
36    33    32    1
37    34    32    1
@<TRIPOS>SUBSTRUCTURE
1   LIG    1    
 
########## Name        : 1VRT.lig
########## Description : AM1BCC_CHARGES =  -0.0002 ORIGINAL_CHARGES =  -0.0000

@<TRIPOS>MOLECULE
1VRT.lig
34    37    1     0     0    
SMALL
USER_CHARGES
@<TRIPOS>ATOM
1     N1       4.0540  -36.9310   22.2210 N.ar    1  LIG  -0.6650  -0.6200 
2     C1       4.9660  -36.2380   22.9390 C.ar    1  LIG   0.3947   0.1600 
3     H1       6.0082  -36.2811   22.6707 H       1  LIG   0.0281   0.1500 
4     C2       4.6240  -35.4500   24.0360 C.ar    1  LIG  -0.2334  -0.1500 
5     H2       5.3884  -34.9151   24.5740 H       1  LIG   0.1480   0.1500 
6     C3       3.3050  -35.3690   24.4150 C.ar    1  LIG  -0.0698  -0.1435 
7     C4       2.3460  -36.0770   23.6860 C.ar    1  LIG  -0.0398   0.1170 
8     N2       0.9890  -36.0280   24.1030 N.am    1  LIG  -0.4596  -0.5470 
9     H3       0.7643  -35.9928   25.0860 H       1  LIG   0.3311   0.3700 
10    C5      -0.1450  -36.0180   23.4080 C.2     1  LIG   0.7361   0.5438 
11    C6      -0.1190  -36.0770   21.8860 C.ar    1  LIG  -0.2550   0.0862 
12    C7      -1.1230  -35.3990   21.1890 C.ar    1  LIG  -0.0321  -0.1500 
13    H4      -1.7552  -34.6955   21.7041 H       1  LIG   0.1623   0.1500 
14    C8      -1.2960  -35.6300   19.8690 C.ar    1  LIG  -0.2723  -0.1500 
15    H5      -2.0662  -35.1073   19.3273 H       1  LIG   0.1522   0.1500 
16    C9      -0.4670  -36.5450   19.2400 C.ar    1  LIG   0.4373   0.1600 
17    H6      -0.5947  -36.7554   18.1915 H       1  LIG   0.0280   0.1500 
18    N3       0.5220  -37.2120   19.8740 N.ar    1  LIG  -0.6893  -0.6200 
19    C10      0.7040  -36.9790   21.1800 C.ar    1  LIG   0.6480   0.4100 
20    N4       1.7670  -37.6730   21.8260 N.pl3   1  LIG  -0.6924  -0.3690 
21    C11      2.7540  -36.8570   22.5840 C.ar    1  LIG   0.5805   0.4100 
22    C12      2.9040  -34.5090   25.6010 C.3     1  LIG  -0.0620   0.1435 
23    H7       2.2235  -33.7630   25.2820 H       1  LIG   0.0570   0.0000 
24    H8       2.4436  -35.1154   26.3371 H       1  LIG   0.0495   0.0000 
25    H9       3.7654  -34.0491   26.0108 H       1  LIG   0.0519   0.0000 
26    O1      -1.2400  -35.9060   23.9770 O.2     1  LIG  -0.6361  -0.5700 
27    C13      2.3440  -38.7570   21.0360 C.3     1  LIG   0.1354   0.0690 
28    H10      3.1238  -38.3754   20.4296 H       1  LIG   0.0981   0.1000 
29    C14      2.9380  -39.8900   21.8010 C.3     1  LIG  -0.1181  -0.2000 
30    H11      3.8890  -40.1268   21.3997 H       1  LIG   0.0732   0.1000 
31    H12      3.0430  -39.6129   22.8177 H       1  LIG   0.0789   0.1000 
32    C15      1.6390  -40.0610   21.0880 C.3     1  LIG  -0.1196  -0.2000 
33    H13      0.6832  -39.9283   21.5242 H       1  LIG   0.0807   0.1000 
34    H14      1.5292  -40.4423   20.1061 H       1  LIG   0.0733   0.1000 
@<TRIPOS>BOND
1     2     1     ar
2     3     2     1
3     4     2     ar
4     5     4     1
5     6     4     ar
6     7     6     ar
7     8     7     1
8     9     8     1
9     10    8     1
10    11    10    1
11    12    11    ar
12    13    12    1
13    14    12    ar
14    15    14    1
15    16    14    ar
16    17    16    1
17    18    16    ar
18    19    11    ar
19    19    18    ar
20    20    19    1
21    21    1     ar
22    21    7     ar
23    21    20    1
24    22    6     1
25    23    22    1
26    24    22    1
27    25    22    1
28    26    10    2
29    27    20    1
30    28    27    1
31    29    27    1
32    30    29    1
33    31    29    1
34    32    27    1
35    32    29    1
36    33    32    1
37    34    32    1
@<TRIPOS>SUBSTRUCTURE
1   LIG    1    
 
########## Name        : 1VRT.lig
########## Description : AM1BCC_CHARGES =  -0.0002 ORIGINAL_CHARGES =  -0.0000

@<TRIPOS>MOLECULE
1VRT.lig
34    37    1     0     0    
SMALL
USER_CHARGES
@<TRIPOS>ATOM
1     N1       4.0540  -36.9310   22.2210 N.ar    1  LIG  -0.6650  -0.6200 
2     C1       4.9660  -36.2380   22.9390 C.ar    1  LIG   0.3947   0.1600 
3     H1       6.0082  -36.2811   22.6707 H       1  LIG   0.0281   0.1500 
4     C2       4.6240  -35.4500   24.0360 C.ar    1  LIG  -0.2334  -0.1500 
5     H2       5.3884  -34.9151   24.5740 H       1  LIG   0.1480   0.1500 
6     C3       3.3050  -35.3690   24.4150 C.ar    1  LIG  -0.0698  -0.1435 
7     C4       2.3460  -36.0770   23.6860 C.ar    1  LIG  -0.0398   0.1170 
8     N2       0.9890  -36.0280   24.1030 N.am    1  LIG  -0.4596  -0.5470 
9     H3       0.7643  -35.9928   25.0860 H       1  LIG   0.3311   0.3700 
10    C5      -0.1450  -36.0180   23.4080 C.2     1  LIG   0.7361   0.5438 
11    C6      -0.1190  -36.0770   21.8860 C.ar    1  LIG  -0.2550   0.0862 
12    C7      -1.1230  -35.3990   21.1890 C.ar    1  LIG  -0.0321  -0.1500 
13    H4      -1.7552  -34.6955   21.7041 H       1  LIG   0.1623   0.1500 
14    C8      -1.2960  -35.6300   19.8690 C.ar    1  LIG  -0.2723  -0.1500 
15    H5      -2.0662  -35.1073   19.3273 H       1  LIG   0.1522   0.1500 
16    C9      -0.4670  -36.5450   19.2400 C.ar    1  LIG   0.4373   0.1600 
17    H6      -0.5947  -36.7554   18.1915 H       1  LIG   0.0280   0.1500 
18    N3       0.5220  -37.2120   19.8740 N.ar    1  LIG  -0.6893  -0.6200 
19    C10      0.7040  -36.9790   21.1800 C.ar    1  LIG   0.6480   0.4100 
20    N4       1.7670  -37.6730   21.8260 N.pl3   1  LIG  -0.6924  -0.3690 
21    C11      2.7540  -36.8570   22.5840 C.ar    1  LIG   0.5805   0.4100 
22    C12      2.9040  -34.5090   25.6010 C.3     1  LIG  -0.0620   0.1435 
23    H7       2.2235  -33.7630   25.2820 H       1  LIG   0.0570   0.0000 
24    H8       2.4436  -35.1154   26.3371 H       1  LIG   0.0495   0.0000 
25    H9       3.7654  -34.0491   26.0108 H       1  LIG   0.0519   0.0000 
26    O1      -1.2400  -35.9060   23.9770 O.2     1  LIG  -0.6361  -0.5700 
27    C13      2.3440  -38.7570   21.0360 C.3     1  LIG   0.1354   0.0690 
28    H10      3.1238  -38.3754   20.4296 H       1  LIG   0.0981   0.1000 
29    C14      2.9380  -39.8900   21.8010 C.3     1  LIG  -0.1181  -0.2000 
30    H11      3.8890  -40.1268   21.3997 H       1  LIG   0.0732   0.1000 
31    H12      3.0430  -39.6129   22.8177 H       1  LIG   0.0789   0.1000 
32    C15      1.6390  -40.0610   21.0880 C.3     1  LIG  -0.1196  -0.2000 
33    H13      0.6832  -39.9283   21.5242 H       1  LIG   0.0807   0.1000 
34    H14      1.5292  -40.4423   20.1061 H       1  LIG   0.0733   0.1000 
@<TRIPOS>BOND
1     2     1     ar
2     3     2     1
3     4     2     ar
4     5     4     1
5     6     4     ar
6     7     6     ar
7     8     7     1
8     9     8     1
9     10    8     1
10    11    10    1
11    12    11    ar
12    13    12    1
13    14    12    ar
14    15    14    1
15    16    14    ar
16    17    16    1
17    18    16    ar
18    19    11    ar
19    19    18    ar
20    20    19    1
21    21    1     ar
22    21    7     ar
23    21    20    1
24    22    6     1
25    23    22    1
26    24    22    1
27    25    22    1
28    26    10    2
29    27    20    1
30    28    27    1
31    29    27    1
32    30    29    1
33    31    29    1
34    32    27    1
35    32    29    1
36    33    32    1
37    34    32    1
@<TRIPOS>SUBSTRUCTURE
1   LIG    1    
 
########## Name        : 1VRT.lig
########## Description : AM1BCC_CHARGES =  -0.0002 ORIGINAL_CHARGES =  -0.0000

@<TRIPOS>MOLECULE
1VRT.lig
34    37    1     0     0    
SMALL
USER_CHARGES
@<TRIPOS>ATOM
1     N1       4.0540  -36.9310   22.2210 N.ar    1  LIG  -0.6650  -0.6200 
2     C1       4.9660  -36.2380   22.9390 C.ar    1  LIG   0.3947   0.1600 
3     H1       6.0082  -36.2811   22.6707 H       1  LIG   0.0281   0.1500 
4     C2       4.6240  -35.4500   24.0360 C.ar    1  LIG  -0.2334  -0.1500 
5     H2       5.3884  -34.9151   24.5740 H       1  LIG   0.1480   0.1500 
6     C3       3.3050  -35.3690   24.4150 C.ar    1  LIG  -0.0698  -0.1435 
7     C4       2.3460  -36.0770   23.6860 C.ar    1  LIG  -0.0398   0.1170 
8     N2       0.9890  -36.0280   24.1030 N.am    1  LIG  -0.4596  -0.5470 
9     H3       0.7643  -35.9928   25.0860 H       1  LIG   0.3311   0.3700 
10    C5      -0.1450  -36.0180   23.4080 C.2     1  LIG   0.7361   0.5438 
11    C6      -0.1190  -36.0770   21.8860 C.ar    1  LIG  -0.2550   0.0862 
12    C7      -1.1230  -35.3990   21.1890 C.ar    1  LIG  -0.0321  -0.1500 
13    H4      -1.7552  -34.6955   21.7041 H       1  LIG   0.1623   0.1500 
14    C8      -1.2960  -35.6300   19.8690 C.ar    1  LIG  -0.2723  -0.1500 
15    H5      -2.0662  -35.1073   19.3273 H       1  LIG   0.1522   0.1500 
16    C9      -0.4670  -36.5450   19.2400 C.ar    1  LIG   0.4373   0.1600 
17    H6      -0.5947  -36.7554   18.1915 H       1  LIG   0.0280   0.1500 
18    N3       0.5220  -37.2120   19.8740 N.ar    1  LIG  -0.6893  -0.6200 
19    C10      0.7040  -36.9790   21.1800 C.ar    1  LIG   0.6480   0.4100 
20    N4       1.7670  -37.6730   21.8260 N.pl3   1  LIG  -0.6924  -0.3690 
21    C11      2.7540  -36.8570   22.5840 C.ar    1  LIG   0.5805   0.4100 
22    C12      2.9040  -34.5090   25.6010 C.3     1  LIG  -0.0620   0.1435 
23    H7       2.2235  -33.7630   25.2820 H       1  LIG   0.0570   0.0000 
24    H8       2.4436  -35.1154   26.3371 H       1  LIG   0.0495   0.0000 
25    H9       3.7654  -34.0491   26.0108 H       1  LIG   0.0519   0.0000 
26    O1      -1.2400  -35.9060   23.9770 O.2     1  LIG  -0.6361  -0.5700 
27    C13      2.3440  -38.7570   21.0360 C.3     1  LIG   0.1354   0.0690 
28    H10      3.1238  -38.3754   20.4296 H       1  LIG   0.0981   0.1000 
29    C14      2.9380  -39.8900   21.8010 C.3     1  LIG  -0.1181  -0.2000 
30    H11      3.8890  -40.1268   21.3997 H       1  LIG   0.0732   0.1000 
31    H12      3.0430  -39.6129   22.8177 H       1  LIG   0.0789   0.1000 
32    C15      1.6390  -40.0610   21.0880 C.3     1  LIG  -0.1196  -0.2000 
33    H13      0.6832  -39.9283   21.5242 H       1  LIG   0.0807   0.1000 
34    H14      1.5292  -40.4423   20.1061 H       1  LIG   0.0733   0.1000 
@<TRIPOS>BOND
1     2     1     ar
2     3     2     1
3     4     2     ar
4     5     4     1
5     6     4     ar
6     7     6     ar
7     8     7     1
8     9     8     1
9     10    8     1
10    11    10    1
11    12    11    ar
12    13    12    1
13    14    12    ar
14    15    14    1
15    16    14    ar
16    17    16    1
17    18    16    ar
18    19    11    ar
19    19    18    ar
20    20    19    1
21    21    1     ar
22    21    7     ar
23    21    20    1
24    22    6     1
25    23    22    1
26    24    22    1
27    25    22    1
28    26    10    2
29    27    20    1
30    28    27    1
31    29    27    1
32    30    29    1
33    31    29    1
34    32    27    1
35    32    29    1
36    33    32    1
37    34    32    1
@<TRIPOS>SUBSTRUCTURE
1   LIG    1    
 
########## Name        : 1VRT.lig
########## Description : AM1BCC_CHARGES =  -0.0002 ORIGINAL_CHARGES =  -0.0000

@<TRIPOS>MOLECULE
1VRT.lig
34    37    1     0     0    
SMALL
USER_CHARGES
@<TRIPOS>ATOM
1     N1       4.0540  -36.9310   22.2210 N.ar    1  LIG  -0.6650  -0.6200 
2     C1       4.9660  -36.2380   22.9390 C.ar    1  LIG   0.3947   0.1600 
3     H1       6.0082  -36.2811   22.6707 H       1  LIG   0.0281   0.1500 
4     C2       4.6240  -35.4500   24.0360 C.ar    1  LIG  -0.2334  -0.1500 
5     H2       5.3884  -34.9151   24.5740 H       1  LIG   0.1480   0.1500 
6     C3       3.3050  -35.3690   24.4150 C.ar    1  LIG  -0.0698  -0.1435 
7     C4       2.3460  -36.0770   23.6860 C.ar    1  LIG  -0.0398   0.1170 
8     N2       0.9890  -36.0280   24.1030 N.am    1  LIG  -0.4596  -0.5470 
9     H3       0.7643  -35.9928   25.0860 H       1  LIG   0.3311   0.3700 
10    C5      -0.1450  -36.0180   23.4080 C.2     1  LIG   0.7361   0.5438 
11    C6      -0.1190  -36.0770   21.8860 C.ar    1  LIG  -0.2550   0.0862 
12    C7      -1.1230  -35.3990   21.1890 C.ar    1  LIG  -0.0321  -0.1500 
13    H4      -1.7552  -34.6955   21.7041 H       1  LIG   0.1623   0.1500 
14    C8      -1.2960  -35.6300   19.8690 C.ar    1  LIG  -0.2723  -0.1500 
15    H5      -2.0662  -35.1073   19.3273 H       1  LIG   0.1522   0.1500 
16    C9      -0.4670  -36.5450   19.2400 C.ar    1  LIG   0.4373   0.1600 
17    H6      -0.5947  -36.7554   18.1915 H       1  LIG   0.0280   0.1500 
18    N3       0.5220  -37.2120   19.8740 N.ar    1  LIG  -0.6893  -0.6200 
19    C10      0.7040  -36.9790   21.1800 C.ar    1  LIG   0.6480   0.4100 
20    N4       1.7670  -37.6730   21.8260 N.pl3   1  LIG  -0.6924  -0.3690 
21    C11      2.7540  -36.8570   22.5840 C.ar    1  LIG   0.5805   0.4100 
22    C12      2.9040  -34.5090   25.6010 C.3     1  LIG  -0.0620   0.1435 
23    H7       2.2235  -33.7630   25.2820 H       1  LIG   0.0570   0.0000 
24    H8       2.4436  -35.1154   26.3371 H       1  LIG   0.0495   0.0000 
25    H9       3.7654  -34.0491   26.0108 H       1  LIG   0.0519   0.0000 
26    O1      -1.2400  -35.9060   23.9770 O.2     1  LIG  -0.6361  -0.5700 
27    C13      2.3440  -38.7570   21.0360 C.3     1  LIG   0.1354   0.0690 
28    H10      3.1238  -38.3754   20.4296 H       1  LIG   0.0981   0.1000 
29    C14      2.9380  -39.8900   21.8010 C.3     1  LIG  -0.1181  -0.2000 
30    H11      3.8890  -40.1268   21.3997 H       1  LIG   0.0732   0.1000 
31    H12      3.0430  -39.6129   22.8177 H       1  LIG   0.0789   0.1000 
32    C15      1.6390  -40.0610   21.0880 C.3     1  LIG  -0.1196  -0.2000 
33    H13      0.6832  -39.9283   21.5242 H       1  LIG   0.0807   0.1000 
34    H14      1.5292  -40.4423   20.1061 H       1  LIG   0.0733   0.1000 
@<TRIPOS>BOND
1     2     1     ar
2     3     2     1
3     4     2     ar
4     5     4     1
5     6     4     ar
6     7     6     ar
7     8     7     1
8     9     8     1
9     10    8     1
10    11    10    1
11    12    11    ar
12    13    12    1
13    14    12    ar
14    15    14    1
15    16    14    ar
16    17    16    1
17    18    16    ar
18    19    11    ar
19    19    18    ar
20    20    19    1
21    21    1     ar
22    21    7     ar
23    21    20    1
24    22    6     1
25    23    22    1
26    24    22    1
27    25    22    1
28    26    10    2
29    27    20    1
30    28    27    1
31    29    27    1
32    30    29    1
33    31    29    1
34    32    27    1
35    32    29    1
36    33    32    1
37    34    32    1
@<TRIPOS>SUBSTRUCTURE
1   LIG    1    
 
########## Name        : 1VRT.lig
########## Description : AM1BCC_CHARGES =  -0.0002 ORIGINAL_CHARGES =  -0.0000

@<TRIPOS>MOLECULE
1VRT.lig
34    37    1     0     0    
SMALL
USER_CHARGES
@<TRIPOS>ATOM
1     N1       4.0540  -36.9310   22.2210 N.ar    1  LIG  -0.6650  -0.6200 
2     C1       4.9660  -36.2380   22.9390 C.ar    1  LIG   0.3947   0.1600 
3     H1       6.0082  -36.2811   22.6707 H       1  LIG   0.0281   0.1500 
4     C2       4.6240  -35.4500   24.0360 C.ar    1  LIG  -0.2334  -0.1500 
5     H2       5.3884  -34.9151   24.5740 H       1  LIG   0.1480   0.1500 
6     C3       3.3050  -35.3690   24.4150 C.ar    1  LIG  -0.0698  -0.1435 
7     C4       2.3460  -36.0770   23.6860 C.ar    1  LIG  -0.0398   0.1170 
8     N2       0.9890  -36.0280   24.1030 N.am    1  LIG  -0.4596  -0.5470 
9     H3       0.7643  -35.9928   25.0860 H       1  LIG   0.3311   0.3700 
10    C5      -0.1450  -36.0180   23.4080 C.2     1  LIG   0.7361   0.5438 
11    C6      -0.1190  -36.0770   21.8860 C.ar    1  LIG  -0.2550   0.0862 
12    C7      -1.1230  -35.3990   21.1890 C.ar    1  LIG  -0.0321  -0.1500 
13    H4      -1.7552  -34.6955   21.7041 H       1  LIG   0.1623   0.1500 
14    C8      -1.2960  -35.6300   19.8690 C.ar    1  LIG  -0.2723  -0.1500 
15    H5      -2.0662  -35.1073   19.3273 H       1  LIG   0.1522   0.1500 
16    C9      -0.4670  -36.5450   19.2400 C.ar    1  LIG   0.4373   0.1600 
17    H6      -0.5947  -36.7554   18.1915 H       1  LIG   0.0280   0.1500 
18    N3       0.5220  -37.2120   19.8740 N.ar    1  LIG  -0.6893  -0.6200 
19    C10      0.7040  -36.9790   21.1800 C.ar    1  LIG   0.6480   0.4100 
20    N4       1.7670  -37.6730   21.8260 N.pl3   1  LIG  -0.6924  -0.3690 
21    C11      2.7540  -36.8570   22.5840 C.ar    1  LIG   0.5805   0.4100 
22    C12      2.9040  -34.5090   25.6010 C.3     1  LIG  -0.0620   0.1435 
23    H7       2.2235  -33.7630   25.2820 H       1  LIG   0.0570   0.0000 
24    H8       2.4436  -35.1154   26.3371 H       1  LIG   0.0495   0.0000 
25    H9       3.7654  -34.0491   26.0108 H       1  LIG   0.0519   0.0000 
26    O1      -1.2400  -35.9060   23.9770 O.2     1  LIG  -0.6361  -0.5700 
27    C13      2.3440  -38.7570   21.0360 C.3     1  LIG   0.1354   0.0690 
28    H10      3.1238  -38.3754   20.4296 H       1  LIG   0.0981   0.1000 
29    C14      2.9380  -39.8900   21.8010 C.3     1  LIG  -0.1181  -0.2000 
30    H11      3.8890  -40.1268   21.3997 H       1  LIG   0.0732   0.1000 
31    H12      3.0430  -39.6129   22.8177 H       1  LIG   0.0789   0.1000 
32    C15      1.6390  -40.0610   21.0880 C.3     1  LIG  -0.1196  -0.2000 
33    H13      0.6832  -39.9283   21.5242 H       1  LIG   0.0807   0.1000 
34    H14      1.5292  -40.4423   20.1061 H       1  LIG   0.0733   0.1000 
@<TRIPOS>BOND
1     2     1     ar
2     3     2     1
3     4     2     ar
4     5     4     1
5     6     4     ar
6     7     6     ar
7     8     7     1
8     9     8     1
9     10    8     1
10    11    10    1
11    12    11    ar
12    13    12    1
13    14    12    ar
14    15    14    1
15    16    14    ar
16    17    16    1
17    18    16    ar
18    19    11    ar
19    19    18    ar
20    20    19    1
21    21    1     ar
22    21    7     ar
23    21    20    1
24    22    6     1
25    23    22    1
26    24    22    1
27    25    22    1
28    26    10    2
29    27    20    1
30    28    27    1
31    29    27    1
32    30    29    1
33    31    29    1
34    32    27    1
35    32    29    1
36    33    32    1
37    34    32    1
@<TRIPOS>SUBSTRUCTURE
1   LIG    1    
 
########## Name        : 1VRT.lig
########## Description : AM1BCC_CHARGES =  -0.0002 ORIGINAL_CHARGES =  -0.0000

@<TRIPOS>MOLECULE
1VRT.lig
34    37    1     0     0    
SMALL
USER_CHARGES
@<TRIPOS>ATOM
1     N1       4.0540  -36.9310   22.2210 N.ar    1  LIG  -0.6650  -0.6200 
2     C1       4.9660  -36.2380   22.9390 C.ar    1  LIG   0.3947   0.1600 
3     H1       6.0082  -36.2811   22.6707 H       1  LIG   0.0281   0.1500 
4     C2       4.6240  -35.4500   24.0360 C.ar    1  LIG  -0.2334  -0.1500 
5     H2       5.3884  -34.9151   24.5740 H       1  LIG   0.1480   0.1500 
6     C3       3.3050  -35.3690   24.4150 C.ar    1  LIG  -0.0698  -0.1435 
7     C4       2.3460  -36.0770   23.6860 C.ar    1  LIG  -0.0398   0.1170 
8     N2       0.9890  -36.0280   24.1030 N.am    1  LIG  -0.4596  -0.5470 
9     H3       0.7643  -35.9928   25.0860 H       1  LIG   0.3311   0.3700 
10    C5      -0.1450  -36.0180   23.4080 C.2     1  LIG   0.7361   0.5438 
11    C6      -0.1190  -36.0770   21.8860 C.ar    1  LIG  -0.2550   0.0862 
12    C7      -1.1230  -35.3990   21.1890 C.ar    1  LIG  -0.0321  -0.1500 
13    H4      -1.7552  -34.6955   21.7041 H       1  LIG   0.1623   0.1500 
14    C8      -1.2960  -35.6300   19.8690 C.ar    1  LIG  -0.2723  -0.1500 
15    H5      -2.0662  -35.1073   19.3273 H       1  LIG   0.1522   0.1500 
16    C9      -0.4670  -36.5450   19.2400 C.ar    1  LIG   0.4373   0.1600 
17    H6      -0.5947  -36.7554   18.1915 H       1  LIG   0.0280   0.1500 
18    N3       0.5220  -37.2120   19.8740 N.ar    1  LIG  -0.6893  -0.6200 
19    C10      0.7040  -36.9790   21.1800 C.ar    1  LIG   0.6480   0.4100 
20    N4       1.7670  -37.6730   21.8260 N.pl3   1  LIG  -0.6924  -0.3690 
21    C11      2.7540  -36.8570   22.5840 C.ar    1  LIG   0.5805   0.4100 
22    C12      2.9040  -34.5090   25.6010 C.3     1  LIG  -0.0620   0.1435 
23    H7       2.2235  -33.7630   25.2820 H       1  LIG   0.0570   0.0000 
24    H8       2.4436  -35.1154   26.3371 H       1  LIG   0.0495   0.0000 
25    H9       3.7654  -34.0491   26.0108 H       1  LIG   0.0519   0.0000 
26    O1      -1.2400  -35.9060   23.9770 O.2     1  LIG  -0.6361  -0.5700 
27    C13      2.3440  -38.7570   21.0360 C.3     1  LIG   0.1354   0.0690 
28    H10      3.1238  -38.3754   20.4296 H       1  LIG   0.0981   0.1000 
29    C14      2.9380  -39.8900   21.8010 C.3     1  LIG  -0.1181  -0.2000 
30    H11      3.8890  -40.1268   21.3997 H       1  LIG   0.0732   0.1000 
31    H12      3.0430  -39.6129   22.8177 H       1  LIG   0.0789   0.1000 
32    C15      1.6390  -40.0610   21.0880 C.3     1  LIG  -0.1196  -0.2000 
33    H13      0.6832  -39.9283   21.5242 H       1  LIG   0.0807   0.1000 
34    H14      1.5292  -40.4423   20.1061 H       1  LIG   0.0733   0.1000 
@<TRIPOS>BOND
1     2     1     ar
2     3     2     1
3     4     2     ar
4     5     4     1
5     6     4     ar
6     7     6     ar
7     8     7     1
8     9     8     1
9     10    8     1
10    11    10    1
11    12    11    ar
12    13    12    1
13    14    12    ar
14    15    14    1
15    16    14    ar
16    17    16    1
17    18    16    ar
18    19    11    ar
19    19    18    ar
20    20    19    1
21    21    1     ar
22    21    7     ar
23    21    20    1
24    22    6     1
25    23    22    1
26    24    22    1
27    25    22    1
28    26    10    2
29    27    20    1
30    28    27    1
31    29    27    1
32    30    29    1
33    31    29    1
34    32    27    1
35    32    29    1
36    33    32    1
37    34    32    1
@<TRIPOS>SUBSTRUCTURE
1   LIG    1    
 
########## Name        : 1VRT.lig
########## Description : AM1BCC_CHARGES =  -0.0002 ORIGINAL_CHARGES =  -0.0000

@<TRIPOS>MOLECULE
1VRT.lig
34    37    1     0     0    
SMALL
USER_CHARGES
@<TRIPOS>ATOM
1     N1       4.0540  -36.9310   22.2210 N.ar    1  LIG  -0.6650  -0.6200 
2     C1       4.9660  -36.2380   22.9390 C.ar    1  LIG   0.3947   0.1600 
3     H1       6.0082  -36.2811   22.6707 H       1  LIG   0.0281   0.1500 
4     C2       4.6240  -35.4500   24.0360 C.ar    1  LIG  -0.2334  -0.1500 
5     H2       5.3884  -34.9151   24.5740 H       1  LIG   0.1480   0.1500 
6     C3       3.3050  -35.3690   24.4150 C.ar    1  LIG  -0.0698  -0.1435 
7     C4       2.3460  -36.0770   23.6860 C.ar    1  LIG  -0.0398   0.1170 
8     N2       0.9890  -36.0280   24.1030 N.am    1  LIG  -0.4596  -0.5470 
9     H3       0.7643  -35.9928   25.0860 H       1  LIG   0.3311   0.3700 
10    C5      -0.1450  -36.0180   23.4080 C.2     1  LIG   0.7361   0.5438 
11    C6      -0.1190  -36.0770   21.8860 C.ar    1  LIG  -0.2550   0.0862 
12    C7      -1.1230  -35.3990   21.1890 C.ar    1  LIG  -0.0321  -0.1500 
13    H4      -1.7552  -34.6955   21.7041 H       1  LIG   0.1623   0.1500 
14    C8      -1.2960  -35.6300   19.8690 C.ar    1  LIG  -0.2723  -0.1500 
15    H5      -2.0662  -35.1073   19.3273 H       1  LIG   0.1522   0.1500 
16    C9      -0.4670  -36.5450   19.2400 C.ar    1  LIG   0.4373   0.1600 
17    H6      -0.5947  -36.7554   18.1915 H       1  LIG   0.0280   0.1500 
18    N3       0.5220  -37.2120   19.8740 N.ar    1  LIG  -0.6893  -0.6200 
19    C10      0.7040  -36.9790   21.1800 C.ar    1  LIG   0.6480   0.4100 
20    N4       1.7670  -37.6730   21.8260 N.pl3   1  LIG  -0.6924  -0.3690 
21    C11      2.7540  -36.8570   22.5840 C.ar    1  LIG   0.5805   0.4100 
22    C12      2.9040  -34.5090   25.6010 C.3     1  LIG  -0.0620   0.1435 
23    H7       2.2235  -33.7630   25.2820 H       1  LIG   0.0570   0.0000 
24    H8       2.4436  -35.1154   26.3371 H       1  LIG   0.0495   0.0000 
25    H9       3.7654  -34.0491   26.0108 H       1  LIG   0.0519   0.0000 
26    O1      -1.2400  -35.9060   23.9770 O.2     1  LIG  -0.6361  -0.5700 
27    C13      2.3440  -38.7570   21.0360 C.3     1  LIG   0.1354   0.0690 
28    H10      3.1238  -38.3754   20.4296 H       1  LIG   0.0981   0.1000 
29    C14      2.9380  -39.8900   21.8010 C.3     1  LIG  -0.1181  -0.2000 
30    H11      3.8890  -40.1268   21.3997 H       1  LIG   0.0732   0.1000 
31    H12      3.0430  -39.6129   22.8177 H       1  LIG   0.0789   0.1000 
32    C15      1.6390  -40.0610   21.0880 C.3     1  LIG  -0.1196  -0.2000 
33    H13      0.6832  -39.9283   21.5242 H       1  LIG   0.0807   0.1000 
34    H14      1.5292  -40.4423   20.1061 H       1  LIG   0.0733   0.1000 
@<TRIPOS>BOND
1     2     1     ar
2     3     2     1
3     4     2     ar
4     5     4     1
5     6     4     ar
6     7     6     ar
7     8     7     1
8     9     8     1
9     10    8     1
10    11    10    1
11    12    11    ar
12    13    12    1
13    14    12    ar
14    15    14    1
15    16    14    ar
16    17    16    1
17    18    16    ar
18    19    11    ar
19    19    18    ar
20    20    19    1
21    21    1     ar
22    21    7     ar
23    21    20    1
24    22    6     1
25    23    22    1
26    24    22    1
27    25    22    1
28    26    10    2
29    27    20    1
30    28    27    1
31    29    27    1
32    30    29    1
33    31    29    1
34    32    27    1
35    32    29    1
36    33    32    1
37    34    32    1
@<TRIPOS>SUBSTRUCTURE
1   LIG    1    
 
########## Name        : 1VRT.lig
########## Description : AM1BCC_CHARGES =  -0.0002 ORIGINAL_CHARGES =  -0.0000

@<TRIPOS>MOLECULE
1VRT.lig
34    37    1     0     0    
SMALL
USER_CHARGES
@<TRIPOS>ATOM
1     N1       4.0540  -36.9310   22.2210 N.ar    1  LIG  -0.6650  -0.6200 
2     C1       4.9660  -36.2380   22.9390 C.ar    1  LIG   0.3947   0.1600 
3     H1       6.0082  -36.2811   22.6707 H       1  LIG   0.0281   0.1500 
4     C2       4.6240  -35.4500   24.0360 C.ar    1  LIG  -0.2334  -0.1500 
5     H2       5.3884  -34.9151   24.5740 H       1  LIG   0.1480   0.1500 
6     C3       3.3050  -35.3690   24.4150 C.ar    1  LIG  -0.0698  -0.1435 
7     C4       2.3460  -36.0770   23.6860 C.ar    1  LIG  -0.0398   0.1170 
8     N2       0.9890  -36.0280   24.1030 N.am    1  LIG  -0.4596  -0.5470 
9     H3       0.7643  -35.9928   25.0860 H       1  LIG   0.3311   0.3700 
10    C5      -0.1450  -36.0180   23.4080 C.2     1  LIG   0.7361   0.5438 
11    C6      -0.1190  -36.0770   21.8860 C.ar    1  LIG  -0.2550   0.0862 
12    C7      -1.1230  -35.3990   21.1890 C.ar    1  LIG  -0.0321  -0.1500 
13    H4      -1.7552  -34.6955   21.7041 H       1  LIG   0.1623   0.1500 
14    C8      -1.2960  -35.6300   19.8690 C.ar    1  LIG  -0.2723  -0.1500 
15    H5      -2.0662  -35.1073   19.3273 H       1  LIG   0.1522   0.1500 
16    C9      -0.4670  -36.5450   19.2400 C.ar    1  LIG   0.4373   0.1600 
17    H6      -0.5947  -36.7554   18.1915 H       1  LIG   0.0280   0.1500 
18    N3       0.5220  -37.2120   19.8740 N.ar    1  LIG  -0.6893  -0.6200 
19    C10      0.7040  -36.9790   21.1800 C.ar    1  LIG   0.6480   0.4100 
20    N4       1.7670  -37.6730   21.8260 N.pl3   1  LIG  -0.6924  -0.3690 
21    C11      2.7540  -36.8570   22.5840 C.ar    1  LIG   0.5805   0.4100 
22    C12      2.9040  -34.5090   25.6010 C.3     1  LIG  -0.0620   0.1435 
23    H7       2.2235  -33.7630   25.2820 H       1  LIG   0.0570   0.0000 
24    H8       2.4436  -35.1154   26.3371 H       1  LIG   0.0495   0.0000 
25    H9       3.7654  -34.0491   26.0108 H       1  LIG   0.0519   0.0000 
26    O1      -1.2400  -35.9060   23.9770 O.2     1  LIG  -0.6361  -0.5700 
27    C13      2.3440  -38.7570   21.0360 C.3     1  LIG   0.1354   0.0690 
28    H10      3.1238  -38.3754   20.4296 H       1  LIG   0.0981   0.1000 
29    C14      2.9380  -39.8900   21.8010 C.3     1  LIG  -0.1181  -0.2000 
30    H11      3.8890  -40.1268   21.3997 H       1  LIG   0.0732   0.1000 
31    H12      3.0430  -39.6129   22.8177 H       1  LIG   0.0789   0.1000 
32    C15      1.6390  -40.0610   21.0880 C.3     1  LIG  -0.1196  -0.2000 
33    H13      0.6832  -39.9283   21.5242 H       1  LIG   0.0807   0.1000 
34    H14      1.5292  -40.4423   20.1061 H       1  LIG   0.0733   0.1000 
@<TRIPOS>BOND
1     2     1     ar
2     3     2     1
3     4     2     ar
4     5     4     1
5     6     4     ar
6     7     6     ar
7     8     7     1
8     9     8     1
9     10    8     1
10    11    10    1
11    12    11    ar
12    13    12    1
13    14    12    ar
14    15    14    1
15    16    14    ar
16    17    16    1
17    18    16    ar
18    19    11    ar
19    19    18    ar
20    20    19    1
21    21    1     ar
22    21    7     ar
23    21    20    1
24    22    6     1
25    23    22    1
26    24    22    1
27    25    22    1
28    26    10    2
29    27    20    1
30    28    27    1
31    29    27    1
32    30    29    1
33    31    29    1
34    32    27    1
35    32    29    1
36    33    32    1
37    34    32    1
@<TRIPOS>SUBSTRUCTURE
1   LIG    1    
 
########## Name        : 1VRT.lig
########## Description : AM1BCC_CHARGES =  -0.0002 ORIGINAL_CHARGES =  -0.0000

@<TRIPOS>MOLECULE
1VRT.lig
34    37    1     0     0    
SMALL
USER_CHARGES
@<TRIPOS>ATOM
1     N1       4.0540  -36.9310   22.2210 N.ar    1  LIG  -0.6650  -0.6200 
2     C1       4.9660  -36.2380   22.9390 C.ar    1  LIG   0.3947   0.1600 
3     H1       6.0082  -36.2811   22.6707 H       1  LIG   0.0281   0.1500 
4     C2       4.6240  -35.4500   24.0360 C.ar    1  LIG  -0.2334  -0.1500 
5     H2       5.3884  -34.9151   24.5740 H       1  LIG   0.1480   0.1500 
6     C3       3.3050  -35.3690   24.4150 C.ar    1  LIG  -0.0698  -0.1435 
7     C4       2.3460  -36.0770   23.6860 C.ar    1  LIG  -0.0398   0.1170 
8     N2       0.9890  -36.0280   24.1030 N.am    1  LIG  -0.4596  -0.5470 
9     H3       0.7643  -35.9928   25.0860 H       1  LIG   0.3311   0.3700 
10    C5      -0.1450  -36.0180   23.4080 C.2     1  LIG   0.7361   0.5438 
11    C6      -0.1190  -36.0770   21.8860 C.ar    1  LIG  -0.2550   0.0862 
12    C7      -1.1230  -35.3990   21.1890 C.ar    1  LIG  -0.0321  -0.1500 
13    H4      -1.7552  -34.6955   21.7041 H       1  LIG   0.1623   0.1500 
14    C8      -1.2960  -35.6300   19.8690 C.ar    1  LIG  -0.2723  -0.1500 
15    H5      -2.0662  -35.1073   19.3273 H       1  LIG   0.1522   0.1500 
16    C9      -0.4670  -36.5450   19.2400 C.ar    1  LIG   0.4373   0.1600 
17    H6      -0.5947  -36.7554   18.1915 H       1  LIG   0.0280   0.1500 
18    N3       0.5220  -37.2120   19.8740 N.ar    1  LIG  -0.6893  -0.6200 
19    C10      0.7040  -36.9790   21.1800 C.ar    1  LIG   0.6480   0.4100 
20    N4       1.7670  -37.6730   21.8260 N.pl3   1  LIG  -0.6924  -0.3690 
21    C11      2.7540  -36.8570   22.5840 C.ar    1  LIG   0.5805   0.4100 
22    C12      2.9040  -34.5090   25.6010 C.3     1  LIG  -0.0620   0.1435 
23    H7       2.2235  -33.7630   25.2820 H       1  LIG   0.0570   0.0000 
24    H8       2.4436  -35.1154   26.3371 H       1  LIG   0.0495   0.0000 
25    H9       3.7654  -34.0491   26.0108 H       1  LIG   0.0519   0.0000 
26    O1      -1.2400  -35.9060   23.9770 O.2     1  LIG  -0.6361  -0.5700 
27    C13      2.3440  -38.7570   21.0360 C.3     1  LIG   0.1354   0.0690 
28    H10      3.1238  -38.3754   20.4296 H       1  LIG   0.0981   0.1000 
29    C14      2.9380  -39.8900   21.8010 C.3     1  LIG  -0.1181  -0.2000 
30    H11      3.8890  -40.1268   21.3997 H       1  LIG   0.0732   0.1000 
31    H12      3.0430  -39.6129   22.8177 H       1  LIG   0.0789   0.1000 
32    C15      1.6390  -40.0610   21.0880 C.3     1  LIG  -0.1196  -0.2000 
33    H13      0.6832  -39.9283   21.5242 H       1  LIG   0.0807   0.1000 
34    H14      1.5292  -40.4423   20.1061 H       1  LIG   0.0733   0.1000 
@<TRIPOS>BOND
1     2     1     ar
2     3     2     1
3     4     2     ar
4     5     4     1
5     6     4     ar
6     7     6     ar
7     8     7     1
8     9     8     1
9     10    8     1
10    11    10    1
11    12    11    ar
12    13    12    1
13    14    12    ar
14    15    14    1
15    16    14    ar
16    17    16    1
17    18    16    ar
18    19    11    ar
19    19    18    ar
20    20    19    1
21    21    1     ar
22    21    7     ar
23    21    20    1
24    22    6     1
25    23    22    1
26    24    22    1
27    25    22    1
28    26    10    2
29    27    20    1
30    28    27    1
31    29    27    1
32    30    29    1
33    31    29    1
34    32    27    1
35    32    29    1
36    33    32    1
37    34    32    1
@<TRIPOS>SUBSTRUCTURE
1   LIG    1    
 
########## Name        : 1VRT.lig
########## Description : AM1BCC_CHARGES =  -0.0002 ORIGINAL_CHARGES =  -0.0000

@<TRIPOS>MOLECULE
1VRT.lig
34    37    1     0     0    
SMALL
USER_CHARGES
@<TRIPOS>ATOM
1     N1       4.0540  -36.9310   22.2210 N.ar    1  LIG  -0.6650  -0.6200 
2     C1       4.9660  -36.2380   22.9390 C.ar    1  LIG   0.3947   0.1600 
3     H1       6.0082  -36.2811   22.6707 H       1  LIG   0.0281   0.1500 
4     C2       4.6240  -35.4500   24.0360 C.ar    1  LIG  -0.2334  -0.1500 
5     H2       5.3884  -34.9151   24.5740 H       1  LIG   0.1480   0.1500 
6     C3       3.3050  -35.3690   24.4150 C.ar    1  LIG  -0.0698  -0.1435 
7     C4       2.3460  -36.0770   23.6860 C.ar    1  LIG  -0.0398   0.1170 
8     N2       0.9890  -36.0280   24.1030 N.am    1  LIG  -0.4596  -0.5470 
9     H3       0.7643  -35.9928   25.0860 H       1  LIG   0.3311   0.3700 
10    C5      -0.1450  -36.0180   23.4080 C.2     1  LIG   0.7361   0.5438 
11    C6      -0.1190  -36.0770   21.8860 C.ar    1  LIG  -0.2550   0.0862 
12    C7      -1.1230  -35.3990   21.1890 C.ar    1  LIG  -0.0321  -0.1500 
13    H4      -1.7552  -34.6955   21.7041 H       1  LIG   0.1623   0.1500 
14    C8      -1.2960  -35.6300   19.8690 C.ar    1  LIG  -0.2723  -0.1500 
15    H5      -2.0662  -35.1073   19.3273 H       1  LIG   0.1522   0.1500 
16    C9      -0.4670  -36.5450   19.2400 C.ar    1  LIG   0.4373   0.1600 
17    H6      -0.5947  -36.7554   18.1915 H       1  LIG   0.0280   0.1500 
18    N3       0.5220  -37.2120   19.8740 N.ar    1  LIG  -0.6893  -0.6200 
19    C10      0.7040  -36.9790   21.1800 C.ar    1  LIG   0.6480   0.4100 
20    N4       1.7670  -37.6730   21.8260 N.pl3   1  LIG  -0.6924  -0.3690 
21    C11      2.7540  -36.8570   22.5840 C.ar    1  LIG   0.5805   0.4100 
22    C12      2.9040  -34.5090   25.6010 C.3     1  LIG  -0.0620   0.1435 
23    H7       2.2235  -33.7630   25.2820 H       1  LIG   0.0570   0.0000 
24    H8       2.4436  -35.1154   26.3371 H       1  LIG   0.0495   0.0000 
25    H9       3.7654  -34.0491   26.0108 H       1  LIG   0.0519   0.0000 
26    O1      -1.2400  -35.9060   23.9770 O.2     1  LIG  -0.6361  -0.5700 
27    C13      2.3440  -38.7570   21.0360 C.3     1  LIG   0.1354   0.0690 
28    H10      3.1238  -38.3754   20.4296 H       1  LIG   0.0981   0.1000 
29    C14      2.9380  -39.8900   21.8010 C.3     1  LIG  -0.1181  -0.2000 
30    H11      3.8890  -40.1268   21.3997 H       1  LIG   0.0732   0.1000 
31    H12      3.0430  -39.6129   22.8177 H       1  LIG   0.0789   0.1000 
32    C15      1.6390  -40.0610   21.0880 C.3     1  LIG  -0.1196  -0.2000 
33    H13      0.6832  -39.9283   21.5242 H       1  LIG   0.0807   0.1000 
34    H14      1.5292  -40.4423   20.1061 H       1  LIG   0.0733   0.1000 
@<TRIPOS>BOND
1     2     1     ar
2     3     2     1
3     4     2     ar
4     5     4     1
5     6     4     ar
6     7     6     ar
7     8     7     1
8     9     8     1
9     10    8     1
10    11    10    1
11    12    11    ar
12    13    12    1
13    14    12    ar
14    15    14    1
15    16    14    ar
16    17    16    1
17    18    16    ar
18    19    11    ar
19    19    18    ar
20    20    19    1
21    21    1     ar
22    21    7     ar
23    21    20    1
24    22    6     1
25    23    22    1
26    24    22    1
27    25    22    1
28    26    10    2
29    27    20    1
30    28    27    1
31    29    27    1
32    30    29    1
33    31    29    1
34    32    27    1
35    32    29    1
36    33    32    1
37    34    32    1
@<TRIPOS>SUBSTRUCTURE
1   LIG    1    
 
########## Name        : 1VRT.lig
########## Description : AM1BCC_CHARGES =  -0.0002 ORIGINAL_CHARGES =  -0.0000

@<TRIPOS>MOLECULE
1VRT.lig
34    37    1     0     0    
SMALL
USER_CHARGES
@<TRIPOS>ATOM
1     N1       4.0540  -36.9310   22.2210 N.ar    1  LIG  -0.6650  -0.6200 
2     C1       4.9660  -36.2380   22.9390 C.ar    1  LIG   0.3947   0.1600 
3     H1       6.0082  -36.2811   22.6707 H       1  LIG   0.0281   0.1500 
4     C2       4.6240  -35.4500   24.0360 C.ar    1  LIG  -0.2334  -0.1500 
5     H2       5.3884  -34.9151   24.5740 H       1  LIG   0.1480   0.1500 
6     C3       3.3050  -35.3690   24.4150 C.ar    1  LIG  -0.0698  -0.1435 
7     C4       2.3460  -36.0770   23.6860 C.ar    1  LIG  -0.0398   0.1170 
8     N2       0.9890  -36.0280   24.1030 N.am    1  LIG  -0.4596  -0.5470 
9     H3       0.7643  -35.9928   25.0860 H       1  LIG   0.3311   0.3700 
10    C5      -0.1450  -36.0180   23.4080 C.2     1  LIG   0.7361   0.5438 
11    C6      -0.1190  -36.0770   21.8860 C.ar    1  LIG  -0.2550   0.0862 
12    C7      -1.1230  -35.3990   21.1890 C.ar    1  LIG  -0.0321  -0.1500 
13    H4      -1.7552  -34.6955   21.7041 H       1  LIG   0.1623   0.1500 
14    C8      -1.2960  -35.6300   19.8690 C.ar    1  LIG  -0.2723  -0.1500 
15    H5      -2.0662  -35.1073   19.3273 H       1  LIG   0.1522   0.1500 
16    C9      -0.4670  -36.5450   19.2400 C.ar    1  LIG   0.4373   0.1600 
17    H6      -0.5947  -36.7554   18.1915 H       1  LIG   0.0280   0.1500 
18    N3       0.5220  -37.2120   19.8740 N.ar    1  LIG  -0.6893  -0.6200 
19    C10      0.7040  -36.9790   21.1800 C.ar    1  LIG   0.6480   0.4100 
20    N4       1.7670  -37.6730   21.8260 N.pl3   1  LIG  -0.6924  -0.3690 
21    C11      2.7540  -36.8570   22.5840 C.ar    1  LIG   0.5805   0.4100 
22    C12      2.9040  -34.5090   25.6010 C.3     1  LIG  -0.0620   0.1435 
23    H7       2.2235  -33.7630   25.2820 H       1  LIG   0.0570   0.0000 
24    H8       2.4436  -35.1154   26.3371 H       1  LIG   0.0495   0.0000 
25    H9       3.7654  -34.0491   26.0108 H       1  LIG   0.0519   0.0000 
26    O1      -1.2400  -35.9060   23.9770 O.2     1  LIG  -0.6361  -0.5700 
27    C13      2.3440  -38.7570   21.0360 C.3     1  LIG   0.1354   0.0690 
28    H10      3.1238  -38.3754   20.4296 H       1  LIG   0.0981   0.1000 
29    C14      2.9380  -39.8900   21.8010 C.3     1  LIG  -0.1181  -0.2000 
30    H11      3.8890  -40.1268   21.3997 H       1  LIG   0.0732   0.1000 
31    H12      3.0430  -39.6129   22.8177 H       1  LIG   0.0789   0.1000 
32    C15      1.6390  -40.0610   21.0880 C.3     1  LIG  -0.1196  -0.2000 
33    H13      0.6832  -39.9283   21.5242 H       1  LIG   0.0807   0.1000 
34    H14      1.5292  -40.4423   20.1061 H       1  LIG   0.0733   0.1000 
@<TRIPOS>BOND
1     2     1     ar
2     3     2     1
3     4     2     ar
4     5     4     1
5     6     4     ar
6     7     6     ar
7     8     7     1
8     9     8     1
9     10    8     1
10    11    10    1
11    12    11    ar
12    13    12    1
13    14    12    ar
14    15    14    1
15    16    14    ar
16    17    16    1
17    18    16    ar
18    19    11    ar
19    19    18    ar
20    20    19    1
21    21    1     ar
22    21    7     ar
23    21    20    1
24    22    6     1
25    23    22    1
26    24    22    1
27    25    22    1
28    26    10    2
29    27    20    1
30    28    27    1
31    29    27    1
32    30    29    1
33    31    29    1
34    32    27    1
35    32    29    1
36    33    32    1
37    34    32    1
@<TRIPOS>SUBSTRUCTURE
1   LIG    1    
 
########## Name        : 1VRT.lig
########## Description : AM1BCC_CHARGES =  -0.0002 ORIGINAL_CHARGES =  -0.0000

@<TRIPOS>MOLECULE
1VRT.lig
34    37    1     0     0    
SMALL
USER_CHARGES
@<TRIPOS>ATOM
1     N1       4.0540  -36.9310   22.2210 N.ar    1  LIG  -0.6650  -0.6200 
2     C1       4.9660  -36.2380   22.9390 C.ar    1  LIG   0.3947   0.1600 
3     H1       6.0082  -36.2811   22.6707 H       1  LIG   0.0281   0.1500 
4     C2       4.6240  -35.4500   24.0360 C.ar    1  LIG  -0.2334  -0.1500 
5     H2       5.3884  -34.9151   24.5740 H       1  LIG   0.1480   0.1500 
6     C3       3.3050  -35.3690   24.4150 C.ar    1  LIG  -0.0698  -0.1435 
7     C4       2.3460  -36.0770   23.6860 C.ar    1  LIG  -0.0398   0.1170 
8     N2       0.9890  -36.0280   24.1030 N.am    1  LIG  -0.4596  -0.5470 
9     H3       0.7643  -35.9928   25.0860 H       1  LIG   0.3311   0.3700 
10    C5      -0.1450  -36.0180   23.4080 C.2     1  LIG   0.7361   0.5438 
11    C6      -0.1190  -36.0770   21.8860 C.ar    1  LIG  -0.2550   0.0862 
12    C7      -1.1230  -35.3990   21.1890 C.ar    1  LIG  -0.0321  -0.1500 
13    H4      -1.7552  -34.6955   21.7041 H       1  LIG   0.1623   0.1500 
14    C8      -1.2960  -35.6300   19.8690 C.ar    1  LIG  -0.2723  -0.1500 
15    H5      -2.0662  -35.1073   19.3273 H       1  LIG   0.1522   0.1500 
16    C9      -0.4670  -36.5450   19.2400 C.ar    1  LIG   0.4373   0.1600 
17    H6      -0.5947  -36.7554   18.1915 H       1  LIG   0.0280   0.1500 
18    N3       0.5220  -37.2120   19.8740 N.ar    1  LIG  -0.6893  -0.6200 
19    C10      0.7040  -36.9790   21.1800 C.ar    1  LIG   0.6480   0.4100 
20    N4       1.7670  -37.6730   21.8260 N.pl3   1  LIG  -0.6924  -0.3690 
21    C11      2.7540  -36.8570   22.5840 C.ar    1  LIG   0.5805   0.4100 
22    C12      2.9040  -34.5090   25.6010 C.3     1  LIG  -0.0620   0.1435 
23    H7       2.2235  -33.7630   25.2820 H       1  LIG   0.0570   0.0000 
24    H8       2.4436  -35.1154   26.3371 H       1  LIG   0.0495   0.0000 
25    H9       3.7654  -34.0491   26.0108 H       1  LIG   0.0519   0.0000 
26    O1      -1.2400  -35.9060   23.9770 O.2     1  LIG  -0.6361  -0.5700 
27    C13      2.3440  -38.7570   21.0360 C.3     1  LIG   0.1354   0.0690 
28    H10      3.1238  -38.3754   20.4296 H       1  LIG   0.0981   0.1000 
29    C14      2.9380  -39.8900   21.8010 C.3     1  LIG  -0.1181  -0.2000 
30    H11      3.8890  -40.1268   21.3997 H       1  LIG   0.0732   0.1000 
31    H12      3.0430  -39.6129   22.8177 H       1  LIG   0.0789   0.1000 
32    C15      1.6390  -40.0610   21.0880 C.3     1  LIG  -0.1196  -0.2000 
33    H13      0.6832  -39.9283   21.5242 H       1  LIG   0.0807   0.1000 
34    H14      1.5292  -40.4423   20.1061 H       1  LIG   0.0733   0.1000 
@<TRIPOS>BOND
1     2     1     ar
2     3     2     1
3     4     2     ar
4     5     4     1
5     6     4     ar
6     7     6     ar
7     8     7     1
8     9     8     1
9     10    8     1
10    11    10    1
11    12    11    ar
12    13    12    1
13    14    12    ar
14    15    14    1
15    16    14    ar
16    17    16    1
17    18    16    ar
18    19    11    ar
19    19    18    ar
20    20    19    1
21    21    1     ar
22    21    7     ar
23    21    20    1
24    22    6     1
25    23    22    1
26    24    22    1
27    25    22    1
28    26    10    2
29    27    20    1
30    28    27    1
31    29    27    1
32    30    29    1
33    31    29    1
34    32    27    1
35    32    29    1
36    33    32    1
37    34    32    1
@<TRIPOS>SUBSTRUCTURE
1   LIG    1    
 
########## Name        : 1VRT.lig
########## Description : AM1BCC_CHARGES =  -0.0002 ORIGINAL_CHARGES =  -0.0000

@<TRIPOS>MOLECULE
1VRT.lig
34    37    1     0     0    
SMALL
USER_CHARGES
@<TRIPOS>ATOM
1     N1       4.0540  -36.9310   22.2210 N.ar    1  LIG  -0.6650  -0.6200 
2     C1       4.9660  -36.2380   22.9390 C.ar    1  LIG   0.3947   0.1600 
3     H1       6.0082  -36.2811   22.6707 H       1  LIG   0.0281   0.1500 
4     C2       4.6240  -35.4500   24.0360 C.ar    1  LIG  -0.2334  -0.1500 
5     H2       5.3884  -34.9151   24.5740 H       1  LIG   0.1480   0.1500 
6     C3       3.3050  -35.3690   24.4150 C.ar    1  LIG  -0.0698  -0.1435 
7     C4       2.3460  -36.0770   23.6860 C.ar    1  LIG  -0.0398   0.1170 
8     N2       0.9890  -36.0280   24.1030 N.am    1  LIG  -0.4596  -0.5470 
9     H3       0.7643  -35.9928   25.0860 H       1  LIG   0.3311   0.3700 
10    C5      -0.1450  -36.0180   23.4080 C.2     1  LIG   0.7361   0.5438 
11    C6      -0.1190  -36.0770   21.8860 C.ar    1  LIG  -0.2550   0.0862 
12    C7      -1.1230  -35.3990   21.1890 C.ar    1  LIG  -0.0321  -0.1500 
13    H4      -1.7552  -34.6955   21.7041 H       1  LIG   0.1623   0.1500 
14    C8      -1.2960  -35.6300   19.8690 C.ar    1  LIG  -0.2723  -0.1500 
15    H5      -2.0662  -35.1073   19.3273 H       1  LIG   0.1522   0.1500 
16    C9      -0.4670  -36.5450   19.2400 C.ar    1  LIG   0.4373   0.1600 
17    H6      -0.5947  -36.7554   18.1915 H       1  LIG   0.0280   0.1500 
18    N3       0.5220  -37.2120   19.8740 N.ar    1  LIG  -0.6893  -0.6200 
19    C10      0.7040  -36.9790   21.1800 C.ar    1  LIG   0.6480   0.4100 
20    N4       1.7670  -37.6730   21.8260 N.pl3   1  LIG  -0.6924  -0.3690 
21    C11      2.7540  -36.8570   22.5840 C.ar    1  LIG   0.5805   0.4100 
22    C12      2.9040  -34.5090   25.6010 C.3     1  LIG  -0.0620   0.1435 
23    H7       2.2235  -33.7630   25.2820 H       1  LIG   0.0570   0.0000 
24    H8       2.4436  -35.1154   26.3371 H       1  LIG   0.0495   0.0000 
25    H9       3.7654  -34.0491   26.0108 H       1  LIG   0.0519   0.0000 
26    O1      -1.2400  -35.9060   23.9770 O.2     1  LIG  -0.6361  -0.5700 
27    C13      2.3440  -38.7570   21.0360 C.3     1  LIG   0.1354   0.0690 
28    H10      3.1238  -38.3754   20.4296 H       1  LIG   0.0981   0.1000 
29    C14      2.9380  -39.8900   21.8010 C.3     1  LIG  -0.1181  -0.2000 
30    H11      3.8890  -40.1268   21.3997 H       1  LIG   0.0732   0.1000 
31    H12      3.0430  -39.6129   22.8177 H       1  LIG   0.0789   0.1000 
32    C15      1.6390  -40.0610   21.0880 C.3     1  LIG  -0.1196  -0.2000 
33    H13      0.6832  -39.9283   21.5242 H       1  LIG   0.0807   0.1000 
34    H14      1.5292  -40.4423   20.1061 H       1  LIG   0.0733   0.1000 
@<TRIPOS>BOND
1     2     1     ar
2     3     2     1
3     4     2     ar
4     5     4     1
5     6     4     ar
6     7     6     ar
7     8     7     1
8     9     8     1
9     10    8     1
10    11    10    1
11    12    11    ar
12    13    12    1
13    14    12    ar
14    15    14    1
15    16    14    ar
16    17    16    1
17    18    16    ar
18    19    11    ar
19    19    18    ar
20    20    19    1
21    21    1     ar
22    21    7     ar
23    21    20    1
24    22    6     1
25    23    22    1
26    24    22    1
27    25    22    1
28    26    10    2
29    27    20    1
30    28    27    1
31    29    27    1
32    30    29    1
33    31    29    1
34    32    27    1
35    32    29    1
36    33    32    1
37    34    32    1
@<TRIPOS>SUBSTRUCTURE
1   LIG    1    
 
########## Name        : 1VRT.lig
########## Description : AM1BCC_CHARGES =  -0.0002 ORIGINAL_CHARGES =  -0.0000

@<TRIPOS>MOLECULE
1VRT.lig
34    37    1     0     0    
SMALL
USER_CHARGES
@<TRIPOS>ATOM
1     N1       4.0540  -36.9310   22.2210 N.ar    1  LIG  -0.6650  -0.6200 
2     C1       4.9660  -36.2380   22.9390 C.ar    1  LIG   0.3947   0.1600 
3     H1       6.0082  -36.2811   22.6707 H       1  LIG   0.0281   0.1500 
4     C2       4.6240  -35.4500   24.0360 C.ar    1  LIG  -0.2334  -0.1500 
5     H2       5.3884  -34.9151   24.5740 H       1  LIG   0.1480   0.1500 
6     C3       3.3050  -35.3690   24.4150 C.ar    1  LIG  -0.0698  -0.1435 
7     C4       2.3460  -36.0770   23.6860 C.ar    1  LIG  -0.0398   0.1170 
8     N2       0.9890  -36.0280   24.1030 N.am    1  LIG  -0.4596  -0.5470 
9     H3       0.7643  -35.9928   25.0860 H       1  LIG   0.3311   0.3700 
10    C5      -0.1450  -36.0180   23.4080 C.2     1  LIG   0.7361   0.5438 
11    C6      -0.1190  -36.0770   21.8860 C.ar    1  LIG  -0.2550   0.0862 
12    C7      -1.1230  -35.3990   21.1890 C.ar    1  LIG  -0.0321  -0.1500 
13    H4      -1.7552  -34.6955   21.7041 H       1  LIG   0.1623   0.1500 
14    C8      -1.2960  -35.6300   19.8690 C.ar    1  LIG  -0.2723  -0.1500 
15    H5      -2.0662  -35.1073   19.3273 H       1  LIG   0.1522   0.1500 
16    C9      -0.4670  -36.5450   19.2400 C.ar    1  LIG   0.4373   0.1600 
17    H6      -0.5947  -36.7554   18.1915 H       1  LIG   0.0280   0.1500 
18    N3       0.5220  -37.2120   19.8740 N.ar    1  LIG  -0.6893  -0.6200 
19    C10      0.7040  -36.9790   21.1800 C.ar    1  LIG   0.6480   0.4100 
20    N4       1.7670  -37.6730   21.8260 N.pl3   1  LIG  -0.6924  -0.3690 
21    C11      2.7540  -36.8570   22.5840 C.ar    1  LIG   0.5805   0.4100 
22    C12      2.9040  -34.5090   25.6010 C.3     1  LIG  -0.0620   0.1435 
23    H7       2.2235  -33.7630   25.2820 H       1  LIG   0.0570   0.0000 
24    H8       2.4436  -35.1154   26.3371 H       1  LIG   0.0495   0.0000 
25    H9       3.7654  -34.0491   26.0108 H       1  LIG   0.0519   0.0000 
26    O1      -1.2400  -35.9060   23.9770 O.2     1  LIG  -0.6361  -0.5700 
27    C13      2.3440  -38.7570   21.0360 C.3     1  LIG   0.1354   0.0690 
28    H10      3.1238  -38.3754   20.4296 H       1  LIG   0.0981   0.1000 
29    C14      2.9380  -39.8900   21.8010 C.3     1  LIG  -0.1181  -0.2000 
30    H11      3.8890  -40.1268   21.3997 H       1  LIG   0.0732   0.1000 
31    H12      3.0430  -39.6129   22.8177 H       1  LIG   0.0789   0.1000 
32    C15      1.6390  -40.0610   21.0880 C.3     1  LIG  -0.1196  -0.2000 
33    H13      0.6832  -39.9283   21.5242 H       1  LIG   0.0807   0.1000 
34    H14      1.5292  -40.4423   20.1061 H       1  LIG   0.0733   0.1000 
@<TRIPOS>BOND
1     2     1     ar
2     3     2     1
3     4     2     ar
4     5     4     1
5     6     4     ar
6     7     6     ar
7     8     7     1
8     9     8     1
9     10    8     1
10    11    10    1
11    12    11    ar
12    13    12    1
13    14    12    ar
14    15    14    1
15    16    14    ar
16    17    16    1
17    18    16    ar
18    19    11    ar
19    19    18    ar
20    20    19    1
21    21    1     ar
22    21    7     ar
23    21    20    1
24    22    6     1
25    23    22    1
26    24    22    1
27    25    22    1
28    26    10    2
29    27    20    1
30    28    27    1
31    29    27    1
32    30    29    1
33    31    29    1
34    32    27    1
35    32    29    1
36    33    32    1
37    34    32    1
@<TRIPOS>SUBSTRUCTURE
1   LIG    1    
 
########## Name        : 1VRT.lig
########## Description : AM1BCC_CHARGES =  -0.0002 ORIGINAL_CHARGES =  -0.0000

@<TRIPOS>MOLECULE
1VRT.lig
34    37    1     0     0    
SMALL
USER_CHARGES
@<TRIPOS>ATOM
1     N1       4.0540  -36.9310   22.2210 N.ar    1  LIG  -0.6650  -0.6200 
2     C1       4.9660  -36.2380   22.9390 C.ar    1  LIG   0.3947   0.1600 
3     H1       6.0082  -36.2811   22.6707 H       1  LIG   0.0281   0.1500 
4     C2       4.6240  -35.4500   24.0360 C.ar    1  LIG  -0.2334  -0.1500 
5     H2       5.3884  -34.9151   24.5740 H       1  LIG   0.1480   0.1500 
6     C3       3.3050  -35.3690   24.4150 C.ar    1  LIG  -0.0698  -0.1435 
7     C4       2.3460  -36.0770   23.6860 C.ar    1  LIG  -0.0398   0.1170 
8     N2       0.9890  -36.0280   24.1030 N.am    1  LIG  -0.4596  -0.5470 
9     H3       0.7643  -35.9928   25.0860 H       1  LIG   0.3311   0.3700 
10    C5      -0.1450  -36.0180   23.4080 C.2     1  LIG   0.7361   0.5438 
11    C6      -0.1190  -36.0770   21.8860 C.ar    1  LIG  -0.2550   0.0862 
12    C7      -1.1230  -35.3990   21.1890 C.ar    1  LIG  -0.0321  -0.1500 
13    H4      -1.7552  -34.6955   21.7041 H       1  LIG   0.1623   0.1500 
14    C8      -1.2960  -35.6300   19.8690 C.ar    1  LIG  -0.2723  -0.1500 
15    H5      -2.0662  -35.1073   19.3273 H       1  LIG   0.1522   0.1500 
16    C9      -0.4670  -36.5450   19.2400 C.ar    1  LIG   0.4373   0.1600 
17    H6      -0.5947  -36.7554   18.1915 H       1  LIG   0.0280   0.1500 
18    N3       0.5220  -37.2120   19.8740 N.ar    1  LIG  -0.6893  -0.6200 
19    C10      0.7040  -36.9790   21.1800 C.ar    1  LIG   0.6480   0.4100 
20    N4       1.7670  -37.6730   21.8260 N.pl3   1  LIG  -0.6924  -0.3690 
21    C11      2.7540  -36.8570   22.5840 C.ar    1  LIG   0.5805   0.4100 
22    C12      2.9040  -34.5090   25.6010 C.3     1  LIG  -0.0620   0.1435 
23    H7       2.2235  -33.7630   25.2820 H       1  LIG   0.0570   0.0000 
24    H8       2.4436  -35.1154   26.3371 H       1  LIG   0.0495   0.0000 
25    H9       3.7654  -34.0491   26.0108 H       1  LIG   0.0519   0.0000 
26    O1      -1.2400  -35.9060   23.9770 O.2     1  LIG  -0.6361  -0.5700 
27    C13      2.3440  -38.7570   21.0360 C.3     1  LIG   0.1354   0.0690 
28    H10      3.1238  -38.3754   20.4296 H       1  LIG   0.0981   0.1000 
29    C14      2.9380  -39.8900   21.8010 C.3     1  LIG  -0.1181  -0.2000 
30    H11      3.8890  -40.1268   21.3997 H       1  LIG   0.0732   0.1000 
31    H12      3.0430  -39.6129   22.8177 H       1  LIG   0.0789   0.1000 
32    C15      1.6390  -40.0610   21.0880 C.3     1  LIG  -0.1196  -0.2000 
33    H13      0.6832  -39.9283   21.5242 H       1  LIG   0.0807   0.1000 
34    H14      1.5292  -40.4423   20.1061 H       1  LIG   0.0733   0.1000 
@<TRIPOS>BOND
1     2     1     ar
2     3     2     1
3     4     2     ar
4     5     4     1
5     6     4     ar
6     7     6     ar
7     8     7     1
8     9     8     1
9     10    8     1
10    11    10    1
11    12    11    ar
12    13    12    1
13    14    12    ar
14    15    14    1
15    16    14    ar
16    17    16    1
17    18    16    ar
18    19    11    ar
19    19    18    ar
20    20    19    1
21    21    1     ar
22    21    7     ar
23    21    20    1
24    22    6     1
25    23    22    1
26    24    22    1
27    25    22    1
28    26    10    2
29    27    20    1
30    28    27    1
31    29    27    1
32    30    29    1
33    31    29    1
34    32    27    1
35    32    29    1
36    33    32    1
37    34    32    1
@<TRIPOS>SUBSTRUCTURE
1   LIG    1    
 
########## Name        : 1VRT.lig
########## Description : AM1BCC_CHARGES =  -0.0002 ORIGINAL_CHARGES =  -0.0000

@<TRIPOS>MOLECULE
1VRT.lig
34    37    1     0     0    
SMALL
USER_CHARGES
@<TRIPOS>ATOM
1     N1       4.0540  -36.9310   22.2210 N.ar    1  LIG  -0.6650  -0.6200 
2     C1       4.9660  -36.2380   22.9390 C.ar    1  LIG   0.3947   0.1600 
3     H1       6.0082  -36.2811   22.6707 H       1  LIG   0.0281   0.1500 
4     C2       4.6240  -35.4500   24.0360 C.ar    1  LIG  -0.2334  -0.1500 
5     H2       5.3884  -34.9151   24.5740 H       1  LIG   0.1480   0.1500 
6     C3       3.3050  -35.3690   24.4150 C.ar    1  LIG  -0.0698  -0.1435 
7     C4       2.3460  -36.0770   23.6860 C.ar    1  LIG  -0.0398   0.1170 
8     N2       0.9890  -36.0280   24.1030 N.am    1  LIG  -0.4596  -0.5470 
9     H3       0.7643  -35.9928   25.0860 H       1  LIG   0.3311   0.3700 
10    C5      -0.1450  -36.0180   23.4080 C.2     1  LIG   0.7361   0.5438 
11    C6      -0.1190  -36.0770   21.8860 C.ar    1  LIG  -0.2550   0.0862 
12    C7      -1.1230  -35.3990   21.1890 C.ar    1  LIG  -0.0321  -0.1500 
13    H4      -1.7552  -34.6955   21.7041 H       1  LIG   0.1623   0.1500 
14    C8      -1.2960  -35.6300   19.8690 C.ar    1  LIG  -0.2723  -0.1500 
15    H5      -2.0662  -35.1073   19.3273 H       1  LIG   0.1522   0.1500 
16    C9      -0.4670  -36.5450   19.2400 C.ar    1  LIG   0.4373   0.1600 
17    H6      -0.5947  -36.7554   18.1915 H       1  LIG   0.0280   0.1500 
18    N3       0.5220  -37.2120   19.8740 N.ar    1  LIG  -0.6893  -0.6200 
19    C10      0.7040  -36.9790   21.1800 C.ar    1  LIG   0.6480   0.4100 
20    N4       1.7670  -37.6730   21.8260 N.pl3   1  LIG  -0.6924  -0.3690 
21    C11      2.7540  -36.8570   22.5840 C.ar    1  LIG   0.5805   0.4100 
22    C12      2.9040  -34.5090   25.6010 C.3     1  LIG  -0.0620   0.1435 
23    H7       2.2235  -33.7630   25.2820 H       1  LIG   0.0570   0.0000 
24    H8       2.4436  -35.1154   26.3371 H       1  LIG   0.0495   0.0000 
25    H9       3.7654  -34.0491   26.0108 H       1  LIG   0.0519   0.0000 
26    O1      -1.2400  -35.9060   23.9770 O.2     1  LIG  -0.6361  -0.5700 
27    C13      2.3440  -38.7570   21.0360 C.3     1  LIG   0.1354   0.0690 
28    H10      3.1238  -38.3754   20.4296 H       1  LIG   0.0981   0.1000 
29    C14      2.9380  -39.8900   21.8010 C.3     1  LIG  -0.1181  -0.2000 
30    H11      3.8890  -40.1268   21.3997 H       1  LIG   0.0732   0.1000 
31    H12      3.0430  -39.6129   22.8177 H       1  LIG   0.0789   0.1000 
32    C15      1.6390  -40.0610   21.0880 C.3     1  LIG  -0.1196  -0.2000 
33    H13      0.6832  -39.9283   21.5242 H       1  LIG   0.0807   0.1000 
34    H14      1.5292  -40.4423   20.1061 H       1  LIG   0.0733   0.1000 
@<TRIPOS>BOND
1     2     1     ar
2     3     2     1
3     4     2     ar
4     5     4     1
5     6     4     ar
6     7     6     ar
7     8     7     1
8     9     8     1
9     10    8     1
10    11    10    1
11    12    11    ar
12    13    12    1
13    14    12    ar
14    15    14    1
15    16    14    ar
16    17    16    1
17    18    16    ar
18    19    11    ar
19    19    18    ar
20    20    19    1
21    21    1     ar
22    21    7     ar
23    21    20    1
24    22    6     1
25    23    22    1
26    24    22    1
27    25    22    1
28    26    10    2
29    27    20    1
30    28    27    1
31    29    27    1
32    30    29    1
33    31    29    1
34    32    27    1
35    32    29    1
36    33    32    1
37    34    32    1
@<TRIPOS>SUBSTRUCTURE
1   LIG    1    
 
########## Name        : 1VRT.lig
########## Description : AM1BCC_CHARGES =  -0.0002 ORIGINAL_CHARGES =  -0.0000

@<TRIPOS>MOLECULE
1VRT.lig
34    37    1     0     0    
SMALL
USER_CHARGES
@<TRIPOS>ATOM
1     N1       4.0540  -36.9310   22.2210 N.ar    1  LIG  -0.6650  -0.6200 
2     C1       4.9660  -36.2380   22.9390 C.ar    1  LIG   0.3947   0.1600 
3     H1       6.0082  -36.2811   22.6707 H       1  LIG   0.0281   0.1500 
4     C2       4.6240  -35.4500   24.0360 C.ar    1  LIG  -0.2334  -0.1500 
5     H2       5.3884  -34.9151   24.5740 H       1  LIG   0.1480   0.1500 
6     C3       3.3050  -35.3690   24.4150 C.ar    1  LIG  -0.0698  -0.1435 
7     C4       2.3460  -36.0770   23.6860 C.ar    1  LIG  -0.0398   0.1170 
8     N2       0.9890  -36.0280   24.1030 N.am    1  LIG  -0.4596  -0.5470 
9     H3       0.7643  -35.9928   25.0860 H       1  LIG   0.3311   0.3700 
10    C5      -0.1450  -36.0180   23.4080 C.2     1  LIG   0.7361   0.5438 
11    C6      -0.1190  -36.0770   21.8860 C.ar    1  LIG  -0.2550   0.0862 
12    C7      -1.1230  -35.3990   21.1890 C.ar    1  LIG  -0.0321  -0.1500 
13    H4      -1.7552  -34.6955   21.7041 H       1  LIG   0.1623   0.1500 
14    C8      -1.2960  -35.6300   19.8690 C.ar    1  LIG  -0.2723  -0.1500 
15    H5      -2.0662  -35.1073   19.3273 H       1  LIG   0.1522   0.1500 
16    C9      -0.4670  -36.5450   19.2400 C.ar    1  LIG   0.4373   0.1600 
17    H6      -0.5947  -36.7554   18.1915 H       1  LIG   0.0280   0.1500 
18    N3       0.5220  -37.2120   19.8740 N.ar    1  LIG  -0.6893  -0.6200 
19    C10      0.7040  -36.9790   21.1800 C.ar    1  LIG   0.6480   0.4100 
20    N4       1.7670  -37.6730   21.8260 N.pl3   1  LIG  -0.6924  -0.3690 
21    C11      2.7540  -36.8570   22.5840 C.ar    1  LIG   0.5805   0.4100 
22    C12      2.9040  -34.5090   25.6010 C.3     1  LIG  -0.0620   0.1435 
23    H7       2.2235  -33.7630   25.2820 H       1  LIG   0.0570   0.0000 
24    H8       2.4436  -35.1154   26.3371 H       1  LIG   0.0495   0.0000 
25    H9       3.7654  -34.0491   26.0108 H       1  LIG   0.0519   0.0000 
26    O1      -1.2400  -35.9060   23.9770 O.2     1  LIG  -0.6361  -0.5700 
27    C13      2.3440  -38.7570   21.0360 C.3     1  LIG   0.1354   0.0690 
28    H10      3.1238  -38.3754   20.4296 H       1  LIG   0.0981   0.1000 
29    C14      2.9380  -39.8900   21.8010 C.3     1  LIG  -0.1181  -0.2000 
30    H11      3.8890  -40.1268   21.3997 H       1  LIG   0.0732   0.1000 
31    H12      3.0430  -39.6129   22.8177 H       1  LIG   0.0789   0.1000 
32    C15      1.6390  -40.0610   21.0880 C.3     1  LIG  -0.1196  -0.2000 
33    H13      0.6832  -39.9283   21.5242 H       1  LIG   0.0807   0.1000 
34    H14      1.5292  -40.4423   20.1061 H       1  LIG   0.0733   0.1000 
@<TRIPOS>BOND
1     2     1     ar
2     3     2     1
3     4     2     ar
4     5     4     1
5     6     4     ar
6     7     6     ar
7     8     7     1
8     9     8     1
9     10    8     1
10    11    10    1
11    12    11    ar
12    13    12    1
13    14    12    ar
14    15    14    1
15    16    14    ar
16    17    16    1
17    18    16    ar
18    19    11    ar
19    19    18    ar
20    20    19    1
21    21    1     ar
22    21    7     ar
23    21    20    1
24    22    6     1
25    23    22    1
26    24    22    1
27    25    22    1
28    26    10    2
29    27    20    1
30    28    27    1
31    29    27    1
32    30    29    1
33    31    29    1
34    32    27    1
35    32    29    1
36    33    32    1
37    34    32    1
@<TRIPOS>SUBSTRUCTURE
1   LIG    1    
 
########## Name        : 1VRT.lig
########## Description : AM1BCC_CHARGES =  -0.0002 ORIGINAL_CHARGES =  -0.0000

@<TRIPOS>MOLECULE
1VRT.lig
34    37    1     0     0    
SMALL
USER_CHARGES
@<TRIPOS>ATOM
1     N1       4.0540  -36.9310   22.2210 N.ar    1  LIG  -0.6650  -0.6200 
2     C1       4.9660  -36.2380   22.9390 C.ar    1  LIG   0.3947   0.1600 
3     H1       6.0082  -36.2811   22.6707 H       1  LIG   0.0281   0.1500 
4     C2       4.6240  -35.4500   24.0360 C.ar    1  LIG  -0.2334  -0.1500 
5     H2       5.3884  -34.9151   24.5740 H       1  LIG   0.1480   0.1500 
6     C3       3.3050  -35.3690   24.4150 C.ar    1  LIG  -0.0698  -0.1435 
7     C4       2.3460  -36.0770   23.6860 C.ar    1  LIG  -0.0398   0.1170 
8     N2       0.9890  -36.0280   24.1030 N.am    1  LIG  -0.4596  -0.5470 
9     H3       0.7643  -35.9928   25.0860 H       1  LIG   0.3311   0.3700 
10    C5      -0.1450  -36.0180   23.4080 C.2     1  LIG   0.7361   0.5438 
11    C6      -0.1190  -36.0770   21.8860 C.ar    1  LIG  -0.2550   0.0862 
12    C7      -1.1230  -35.3990   21.1890 C.ar    1  LIG  -0.0321  -0.1500 
13    H4      -1.7552  -34.6955   21.7041 H       1  LIG   0.1623   0.1500 
14    C8      -1.2960  -35.6300   19.8690 C.ar    1  LIG  -0.2723  -0.1500 
15    H5      -2.0662  -35.1073   19.3273 H       1  LIG   0.1522   0.1500 
16    C9      -0.4670  -36.5450   19.2400 C.ar    1  LIG   0.4373   0.1600 
17    H6      -0.5947  -36.7554   18.1915 H       1  LIG   0.0280   0.1500 
18    N3       0.5220  -37.2120   19.8740 N.ar    1  LIG  -0.6893  -0.6200 
19    C10      0.7040  -36.9790   21.1800 C.ar    1  LIG   0.6480   0.4100 
20    N4       1.7670  -37.6730   21.8260 N.pl3   1  LIG  -0.6924  -0.3690 
21    C11      2.7540  -36.8570   22.5840 C.ar    1  LIG   0.5805   0.4100 
22    C12      2.9040  -34.5090   25.6010 C.3     1  LIG  -0.0620   0.1435 
23    H7       2.2235  -33.7630   25.2820 H       1  LIG   0.0570   0.0000 
24    H8       2.4436  -35.1154   26.3371 H       1  LIG   0.0495   0.0000 
25    H9       3.7654  -34.0491   26.0108 H       1  LIG   0.0519   0.0000 
26    O1      -1.2400  -35.9060   23.9770 O.2     1  LIG  -0.6361  -0.5700 
27    C13      2.3440  -38.7570   21.0360 C.3     1  LIG   0.1354   0.0690 
28    H10      3.1238  -38.3754   20.4296 H       1  LIG   0.0981   0.1000 
29    C14      2.9380  -39.8900   21.8010 C.3     1  LIG  -0.1181  -0.2000 
30    H11      3.8890  -40.1268   21.3997 H       1  LIG   0.0732   0.1000 
31    H12      3.0430  -39.6129   22.8177 H       1  LIG   0.0789   0.1000 
32    C15      1.6390  -40.0610   21.0880 C.3     1  LIG  -0.1196  -0.2000 
33    H13      0.6832  -39.9283   21.5242 H       1  LIG   0.0807   0.1000 
34    H14      1.5292  -40.4423   20.1061 H       1  LIG   0.0733   0.1000 
@<TRIPOS>BOND
1     2     1     ar
2     3     2     1
3     4     2     ar
4     5     4     1
5     6     4     ar
6     7     6     ar
7     8     7     1
8     9     8     1
9     10    8     1
10    11    10    1
11    12    11    ar
12    13    12    1
13    14    12    ar
14    15    14    1
15    16    14    ar
16    17    16    1
17    18    16    ar
18    19    11    ar
19    19    18    ar
20    20    19    1
21    21    1     ar
22    21    7     ar
23    21    20    1
24    22    6     1
25    23    22    1
26    24    22    1
27    25    22    1
28    26    10    2
29    27    20    1
30    28    27    1
31    29    27    1
32    30    29    1
33    31    29    1
34    32    27    1
35    32    29    1
36    33    32    1
37    34    32    1
@<TRIPOS>SUBSTRUCTURE
1   LIG    1    
 
########## Name        : 1VRT.lig
########## Description : AM1BCC_CHARGES =  -0.0002 ORIGINAL_CHARGES =  -0.0000

@<TRIPOS>MOLECULE
1VRT.lig
34    37    1     0     0    
SMALL
USER_CHARGES
@<TRIPOS>ATOM
1     N1       4.0540  -36.9310   22.2210 N.ar    1  LIG  -0.6650  -0.6200 
2     C1       4.9660  -36.2380   22.9390 C.ar    1  LIG   0.3947   0.1600 
3     H1       6.0082  -36.2811   22.6707 H       1  LIG   0.0281   0.1500 
4     C2       4.6240  -35.4500   24.0360 C.ar    1  LIG  -0.2334  -0.1500 
5     H2       5.3884  -34.9151   24.5740 H       1  LIG   0.1480   0.1500 
6     C3       3.3050  -35.3690   24.4150 C.ar    1  LIG  -0.0698  -0.1435 
7     C4       2.3460  -36.0770   23.6860 C.ar    1  LIG  -0.0398   0.1170 
8     N2       0.9890  -36.0280   24.1030 N.am    1  LIG  -0.4596  -0.5470 
9     H3       0.7643  -35.9928   25.0860 H       1  LIG   0.3311   0.3700 
10    C5      -0.1450  -36.0180   23.4080 C.2     1  LIG   0.7361   0.5438 
11    C6      -0.1190  -36.0770   21.8860 C.ar    1  LIG  -0.2550   0.0862 
12    C7      -1.1230  -35.3990   21.1890 C.ar    1  LIG  -0.0321  -0.1500 
13    H4      -1.7552  -34.6955   21.7041 H       1  LIG   0.1623   0.1500 
14    C8      -1.2960  -35.6300   19.8690 C.ar    1  LIG  -0.2723  -0.1500 
15    H5      -2.0662  -35.1073   19.3273 H       1  LIG   0.1522   0.1500 
16    C9      -0.4670  -36.5450   19.2400 C.ar    1  LIG   0.4373   0.1600 
17    H6      -0.5947  -36.7554   18.1915 H       1  LIG   0.0280   0.1500 
18    N3       0.5220  -37.2120   19.8740 N.ar    1  LIG  -0.6893  -0.6200 
19    C10      0.7040  -36.9790   21.1800 C.ar    1  LIG   0.6480   0.4100 
20    N4       1.7670  -37.6730   21.8260 N.pl3   1  LIG  -0.6924  -0.3690 
21    C11      2.7540  -36.8570   22.5840 C.ar    1  LIG   0.5805   0.4100 
22    C12      2.9040  -34.5090   25.6010 C.3     1  LIG  -0.0620   0.1435 
23    H7       2.2235  -33.7630   25.2820 H       1  LIG   0.0570   0.0000 
24    H8       2.4436  -35.1154   26.3371 H       1  LIG   0.0495   0.0000 
25    H9       3.7654  -34.0491   26.0108 H       1  LIG   0.0519   0.0000 
26    O1      -1.2400  -35.9060   23.9770 O.2     1  LIG  -0.6361  -0.5700 
27    C13      2.3440  -38.7570   21.0360 C.3     1  LIG   0.1354   0.0690 
28    H10      3.1238  -38.3754   20.4296 H       1  LIG   0.0981   0.1000 
29    C14      2.9380  -39.8900   21.8010 C.3     1  LIG  -0.1181  -0.2000 
30    H11      3.8890  -40.1268   21.3997 H       1  LIG   0.0732   0.1000 
31    H12      3.0430  -39.6129   22.8177 H       1  LIG   0.0789   0.1000 
32    C15      1.6390  -40.0610   21.0880 C.3     1  LIG  -0.1196  -0.2000 
33    H13      0.6832  -39.9283   21.5242 H       1  LIG   0.0807   0.1000 
34    H14      1.5292  -40.4423   20.1061 H       1  LIG   0.0733   0.1000 
@<TRIPOS>BOND
1     2     1     ar
2     3     2     1
3     4     2     ar
4     5     4     1
5     6     4     ar
6     7     6     ar
7     8     7     1
8     9     8     1
9     10    8     1
10    11    10    1
11    12    11    ar
12    13    12    1
13    14    12    ar
14    15    14    1
15    16    14    ar
16    17    16    1
17    18    16    ar
18    19    11    ar
19    19    18    ar
20    20    19    1
21    21    1     ar
22    21    7     ar
23    21    20    1
24    22    6     1
25    23    22    1
26    24    22    1
27    25    22    1
28    26    10    2
29    27    20    1
30    28    27    1
31    29    27    1
32    30    29    1
33    31    29    1
34    32    27    1
35    32    29    1
36    33    32    1
37    34    32    1
@<TRIPOS>SUBSTRUCTURE
1   LIG    1    
 
########## Name        : 1VRT.lig
########## Description : AM1BCC_CHARGES =  -0.0002 ORIGINAL_CHARGES =  -0.0000

@<TRIPOS>MOLECULE
1VRT.lig
34    37    1     0     0    
SMALL
USER_CHARGES
@<TRIPOS>ATOM
1     N1       4.0540  -36.9310   22.2210 N.ar    1  LIG  -0.6650  -0.6200 
2     C1       4.9660  -36.2380   22.9390 C.ar    1  LIG   0.3947   0.1600 
3     H1       6.0082  -36.2811   22.6707 H       1  LIG   0.0281   0.1500 
4     C2       4.6240  -35.4500   24.0360 C.ar    1  LIG  -0.2334  -0.1500 
5     H2       5.3884  -34.9151   24.5740 H       1  LIG   0.1480   0.1500 
6     C3       3.3050  -35.3690   24.4150 C.ar    1  LIG  -0.0698  -0.1435 
7     C4       2.3460  -36.0770   23.6860 C.ar    1  LIG  -0.0398   0.1170 
8     N2       0.9890  -36.0280   24.1030 N.am    1  LIG  -0.4596  -0.5470 
9     H3       0.7643  -35.9928   25.0860 H       1  LIG   0.3311   0.3700 
10    C5      -0.1450  -36.0180   23.4080 C.2     1  LIG   0.7361   0.5438 
11    C6      -0.1190  -36.0770   21.8860 C.ar    1  LIG  -0.2550   0.0862 
12    C7      -1.1230  -35.3990   21.1890 C.ar    1  LIG  -0.0321  -0.1500 
13    H4      -1.7552  -34.6955   21.7041 H       1  LIG   0.1623   0.1500 
14    C8      -1.2960  -35.6300   19.8690 C.ar    1  LIG  -0.2723  -0.1500 
15    H5      -2.0662  -35.1073   19.3273 H       1  LIG   0.1522   0.1500 
16    C9      -0.4670  -36.5450   19.2400 C.ar    1  LIG   0.4373   0.1600 
17    H6      -0.5947  -36.7554   18.1915 H       1  LIG   0.0280   0.1500 
18    N3       0.5220  -37.2120   19.8740 N.ar    1  LIG  -0.6893  -0.6200 
19    C10      0.7040  -36.9790   21.1800 C.ar    1  LIG   0.6480   0.4100 
20    N4       1.7670  -37.6730   21.8260 N.pl3   1  LIG  -0.6924  -0.3690 
21    C11      2.7540  -36.8570   22.5840 C.ar    1  LIG   0.5805   0.4100 
22    C12      2.9040  -34.5090   25.6010 C.3     1  LIG  -0.0620   0.1435 
23    H7       2.2235  -33.7630   25.2820 H       1  LIG   0.0570   0.0000 
24    H8       2.4436  -35.1154   26.3371 H       1  LIG   0.0495   0.0000 
25    H9       3.7654  -34.0491   26.0108 H       1  LIG   0.0519   0.0000 
26    O1      -1.2400  -35.9060   23.9770 O.2     1  LIG  -0.6361  -0.5700 
27    C13      2.3440  -38.7570   21.0360 C.3     1  LIG   0.1354   0.0690 
28    H10      3.1238  -38.3754   20.4296 H       1  LIG   0.0981   0.1000 
29    C14      2.9380  -39.8900   21.8010 C.3     1  LIG  -0.1181  -0.2000 
30    H11      3.8890  -40.1268   21.3997 H       1  LIG   0.0732   0.1000 
31    H12      3.0430  -39.6129   22.8177 H       1  LIG   0.0789   0.1000 
32    C15      1.6390  -40.0610   21.0880 C.3     1  LIG  -0.1196  -0.2000 
33    H13      0.6832  -39.9283   21.5242 H       1  LIG   0.0807   0.1000 
34    H14      1.5292  -40.4423   20.1061 H       1  LIG   0.0733   0.1000 
@<TRIPOS>BOND
1     2     1     ar
2     3     2     1
3     4     2     ar
4     5     4     1
5     6     4     ar
6     7     6     ar
7     8     7     1
8     9     8     1
9     10    8     1
10    11    10    1
11    12    11    ar
12    13    12    1
13    14    12    ar
14    15    14    1
15    16    14    ar
16    17    16    1
17    18    16    ar
18    19    11    ar
19    19    18    ar
20    20    19    1
21    21    1     ar
22    21    7     ar
23    21    20    1
24    22    6     1
25    23    22    1
26    24    22    1
27    25    22    1
28    26    10    2
29    27    20    1
30    28    27    1
31    29    27    1
32    30    29    1
33    31    29    1
34    32    27    1
35    32    29    1
36    33    32    1
37    34    32    1
@<TRIPOS>SUBSTRUCTURE
1   LIG    1    
 
########## Name        : 1VRT.lig
########## Description : AM1BCC_CHARGES =  -0.0002 ORIGINAL_CHARGES =  -0.0000

@<TRIPOS>MOLECULE
1VRT.lig
34    37    1     0     0    
SMALL
USER_CHARGES
@<TRIPOS>ATOM
1     N1       4.0540  -36.9310   22.2210 N.ar    1  LIG  -0.6650  -0.6200 
2     C1       4.9660  -36.2380   22.9390 C.ar    1  LIG   0.3947   0.1600 
3     H1       6.0082  -36.2811   22.6707 H       1  LIG   0.0281   0.1500 
4     C2       4.6240  -35.4500   24.0360 C.ar    1  LIG  -0.2334  -0.1500 
5     H2       5.3884  -34.9151   24.5740 H       1  LIG   0.1480   0.1500 
6     C3       3.3050  -35.3690   24.4150 C.ar    1  LIG  -0.0698  -0.1435 
7     C4       2.3460  -36.0770   23.6860 C.ar    1  LIG  -0.0398   0.1170 
8     N2       0.9890  -36.0280   24.1030 N.am    1  LIG  -0.4596  -0.5470 
9     H3       0.7643  -35.9928   25.0860 H       1  LIG   0.3311   0.3700 
10    C5      -0.1450  -36.0180   23.4080 C.2     1  LIG   0.7361   0.5438 
11    C6      -0.1190  -36.0770   21.8860 C.ar    1  LIG  -0.2550   0.0862 
12    C7      -1.1230  -35.3990   21.1890 C.ar    1  LIG  -0.0321  -0.1500 
13    H4      -1.7552  -34.6955   21.7041 H       1  LIG   0.1623   0.1500 
14    C8      -1.2960  -35.6300   19.8690 C.ar    1  LIG  -0.2723  -0.1500 
15    H5      -2.0662  -35.1073   19.3273 H       1  LIG   0.1522   0.1500 
16    C9      -0.4670  -36.5450   19.2400 C.ar    1  LIG   0.4373   0.1600 
17    H6      -0.5947  -36.7554   18.1915 H       1  LIG   0.0280   0.1500 
18    N3       0.5220  -37.2120   19.8740 N.ar    1  LIG  -0.6893  -0.6200 
19    C10      0.7040  -36.9790   21.1800 C.ar    1  LIG   0.6480   0.4100 
20    N4       1.7670  -37.6730   21.8260 N.pl3   1  LIG  -0.6924  -0.3690 
21    C11      2.7540  -36.8570   22.5840 C.ar    1  LIG   0.5805   0.4100 
22    C12      2.9040  -34.5090   25.6010 C.3     1  LIG  -0.0620   0.1435 
23    H7       2.2235  -33.7630   25.2820 H       1  LIG   0.0570   0.0000 
24    H8       2.4436  -35.1154   26.3371 H       1  LIG   0.0495   0.0000 
25    H9       3.7654  -34.0491   26.0108 H       1  LIG   0.0519   0.0000 
26    O1      -1.2400  -35.9060   23.9770 O.2     1  LIG  -0.6361  -0.5700 
27    C13      2.3440  -38.7570   21.0360 C.3     1  LIG   0.1354   0.0690 
28    H10      3.1238  -38.3754   20.4296 H       1  LIG   0.0981   0.1000 
29    C14      2.9380  -39.8900   21.8010 C.3     1  LIG  -0.1181  -0.2000 
30    H11      3.8890  -40.1268   21.3997 H       1  LIG   0.0732   0.1000 
31    H12      3.0430  -39.6129   22.8177 H       1  LIG   0.0789   0.1000 
32    C15      1.6390  -40.0610   21.0880 C.3     1  LIG  -0.1196  -0.2000 
33    H13      0.6832  -39.9283   21.5242 H       1  LIG   0.0807   0.1000 
34    H14      1.5292  -40.4423   20.1061 H       1  LIG   0.0733   0.1000 
@<TRIPOS>BOND
1     2     1     ar
2     3     2     1
3     4     2     ar
4     5     4     1
5     6     4     ar
6     7     6     ar
7     8     7     1
8     9     8     1
9     10    8     1
10    11    10    1
11    12    11    ar
12    13    12    1
13    14    12    ar
14    15    14    1
15    16    14    ar
16    17    16    1
17    18    16    ar
18    19    11    ar
19    19    18    ar
20    20    19    1
21    21    1     ar
22    21    7     ar
23    21    20    1
24    22    6     1
25    23    22    1
26    24    22    1
27    25    22    1
28    26    10    2
29    27    20    1
30    28    27    1
31    29    27    1
32    30    29    1
33    31    29    1
34    32    27    1
35    32    29    1
36    33    32    1
37    34    32    1
@<TRIPOS>SUBSTRUCTURE
1   LIG    1    
 
########## Name        : 1VRT.lig
########## Description : AM1BCC_CHARGES =  -0.0002 ORIGINAL_CHARGES =  -0.0000

@<TRIPOS>MOLECULE
1VRT.lig
34    37    1     0     0    
SMALL
USER_CHARGES
@<TRIPOS>ATOM
1     N1       4.0540  -36.9310   22.2210 N.ar    1  LIG  -0.6650  -0.6200 
2     C1       4.9660  -36.2380   22.9390 C.ar    1  LIG   0.3947   0.1600 
3     H1       6.0082  -36.2811   22.6707 H       1  LIG   0.0281   0.1500 
4     C2       4.6240  -35.4500   24.0360 C.ar    1  LIG  -0.2334  -0.1500 
5     H2       5.3884  -34.9151   24.5740 H       1  LIG   0.1480   0.1500 
6     C3       3.3050  -35.3690   24.4150 C.ar    1  LIG  -0.0698  -0.1435 
7     C4       2.3460  -36.0770   23.6860 C.ar    1  LIG  -0.0398   0.1170 
8     N2       0.9890  -36.0280   24.1030 N.am    1  LIG  -0.4596  -0.5470 
9     H3       0.7643  -35.9928   25.0860 H       1  LIG   0.3311   0.3700 
10    C5      -0.1450  -36.0180   23.4080 C.2     1  LIG   0.7361   0.5438 
11    C6      -0.1190  -36.0770   21.8860 C.ar    1  LIG  -0.2550   0.0862 
12    C7      -1.1230  -35.3990   21.1890 C.ar    1  LIG  -0.0321  -0.1500 
13    H4      -1.7552  -34.6955   21.7041 H       1  LIG   0.1623   0.1500 
14    C8      -1.2960  -35.6300   19.8690 C.ar    1  LIG  -0.2723  -0.1500 
15    H5      -2.0662  -35.1073   19.3273 H       1  LIG   0.1522   0.1500 
16    C9      -0.4670  -36.5450   19.2400 C.ar    1  LIG   0.4373   0.1600 
17    H6      -0.5947  -36.7554   18.1915 H       1  LIG   0.0280   0.1500 
18    N3       0.5220  -37.2120   19.8740 N.ar    1  LIG  -0.6893  -0.6200 
19    C10      0.7040  -36.9790   21.1800 C.ar    1  LIG   0.6480   0.4100 
20    N4       1.7670  -37.6730   21.8260 N.pl3   1  LIG  -0.6924  -0.3690 
21    C11      2.7540  -36.8570   22.5840 C.ar    1  LIG   0.5805   0.4100 
22    C12      2.9040  -34.5090   25.6010 C.3     1  LIG  -0.0620   0.1435 
23    H7       2.2235  -33.7630   25.2820 H       1  LIG   0.0570   0.0000 
24    H8       2.4436  -35.1154   26.3371 H       1  LIG   0.0495   0.0000 
25    H9       3.7654  -34.0491   26.0108 H       1  LIG   0.0519   0.0000 
26    O1      -1.2400  -35.9060   23.9770 O.2     1  LIG  -0.6361  -0.5700 
27    C13      2.3440  -38.7570   21.0360 C.3     1  LIG   0.1354   0.0690 
28    H10      3.1238  -38.3754   20.4296 H       1  LIG   0.0981   0.1000 
29    C14      2.9380  -39.8900   21.8010 C.3     1  LIG  -0.1181  -0.2000 
30    H11      3.8890  -40.1268   21.3997 H       1  LIG   0.0732   0.1000 
31    H12      3.0430  -39.6129   22.8177 H       1  LIG   0.0789   0.1000 
32    C15      1.6390  -40.0610   21.0880 C.3     1  LIG  -0.1196  -0.2000 
33    H13      0.6832  -39.9283   21.5242 H       1  LIG   0.0807   0.1000 
34    H14      1.5292  -40.4423   20.1061 H       1  LIG   0.0733   0.1000 
@<TRIPOS>BOND
1     2     1     ar
2     3     2     1
3     4     2     ar
4     5     4     1
5     6     4     ar
6     7     6     ar
7     8     7     1
8     9     8     1
9     10    8     1
10    11    10    1
11    12    11    ar
12    13    12    1
13    14    12    ar
14    15    14    1
15    16    14    ar
16    17    16    1
17    18    16    ar
18    19    11    ar
19    19    18    ar
20    20    19    1
21    21    1     ar
22    21    7     ar
23    21    20    1
24    22    6     1
25    23    22    1
26    24    22    1
27    25    22    1
28    26    10    2
29    27    20    1
30    28    27    1
31    29    27    1
32    30    29    1
33    31    29    1
34    32    27    1
35    32    29    1
36    33    32    1
37    34    32    1
@<TRIPOS>SUBSTRUCTURE
1   LIG    1    
 
########## Name        : 1VRT.lig
########## Description : AM1BCC_CHARGES =  -0.0002 ORIGINAL_CHARGES =  -0.0000

@<TRIPOS>MOLECULE
1VRT.lig
34    37    1     0     0    
SMALL
USER_CHARGES
@<TRIPOS>ATOM
1     N1       4.0540  -36.9310   22.2210 N.ar    1  LIG  -0.6650  -0.6200 
2     C1       4.9660  -36.2380   22.9390 C.ar    1  LIG   0.3947   0.1600 
3     H1       6.0082  -36.2811   22.6707 H       1  LIG   0.0281   0.1500 
4     C2       4.6240  -35.4500   24.0360 C.ar    1  LIG  -0.2334  -0.1500 
5     H2       5.3884  -34.9151   24.5740 H       1  LIG   0.1480   0.1500 
6     C3       3.3050  -35.3690   24.4150 C.ar    1  LIG  -0.0698  -0.1435 
7     C4       2.3460  -36.0770   23.6860 C.ar    1  LIG  -0.0398   0.1170 
8     N2       0.9890  -36.0280   24.1030 N.am    1  LIG  -0.4596  -0.5470 
9     H3       0.7643  -35.9928   25.0860 H       1  LIG   0.3311   0.3700 
10    C5      -0.1450  -36.0180   23.4080 C.2     1  LIG   0.7361   0.5438 
11    C6      -0.1190  -36.0770   21.8860 C.ar    1  LIG  -0.2550   0.0862 
12    C7      -1.1230  -35.3990   21.1890 C.ar    1  LIG  -0.0321  -0.1500 
13    H4      -1.7552  -34.6955   21.7041 H       1  LIG   0.1623   0.1500 
14    C8      -1.2960  -35.6300   19.8690 C.ar    1  LIG  -0.2723  -0.1500 
15    H5      -2.0662  -35.1073   19.3273 H       1  LIG   0.1522   0.1500 
16    C9      -0.4670  -36.5450   19.2400 C.ar    1  LIG   0.4373   0.1600 
17    H6      -0.5947  -36.7554   18.1915 H       1  LIG   0.0280   0.1500 
18    N3       0.5220  -37.2120   19.8740 N.ar    1  LIG  -0.6893  -0.6200 
19    C10      0.7040  -36.9790   21.1800 C.ar    1  LIG   0.6480   0.4100 
20    N4       1.7670  -37.6730   21.8260 N.pl3   1  LIG  -0.6924  -0.3690 
21    C11      2.7540  -36.8570   22.5840 C.ar    1  LIG   0.5805   0.4100 
22    C12      2.9040  -34.5090   25.6010 C.3     1  LIG  -0.0620   0.1435 
23    H7       2.2235  -33.7630   25.2820 H       1  LIG   0.0570   0.0000 
24    H8       2.4436  -35.1154   26.3371 H       1  LIG   0.0495   0.0000 
25    H9       3.7654  -34.0491   26.0108 H       1  LIG   0.0519   0.0000 
26    O1      -1.2400  -35.9060   23.9770 O.2     1  LIG  -0.6361  -0.5700 
27    C13      2.3440  -38.7570   21.0360 C.3     1  LIG   0.1354   0.0690 
28    H10      3.1238  -38.3754   20.4296 H       1  LIG   0.0981   0.1000 
29    C14      2.9380  -39.8900   21.8010 C.3     1  LIG  -0.1181  -0.2000 
30    H11      3.8890  -40.1268   21.3997 H       1  LIG   0.0732   0.1000 
31    H12      3.0430  -39.6129   22.8177 H       1  LIG   0.0789   0.1000 
32    C15      1.6390  -40.0610   21.0880 C.3     1  LIG  -0.1196  -0.2000 
33    H13      0.6832  -39.9283   21.5242 H       1  LIG   0.0807   0.1000 
34    H14      1.5292  -40.4423   20.1061 H       1  LIG   0.0733   0.1000 
@<TRIPOS>BOND
1     2     1     ar
2     3     2     1
3     4     2     ar
4     5     4     1
5     6     4     ar
6     7     6     ar
7     8     7     1
8     9     8     1
9     10    8     1
10    11    10    1
11    12    11    ar
12    13    12    1
13    14    12    ar
14    15    14    1
15    16    14    ar
16    17    16    1
17    18    16    ar
18    19    11    ar
19    19    18    ar
20    20    19    1
21    21    1     ar
22    21    7     ar
23    21    20    1
24    22    6     1
25    23    22    1
26    24    22    1
27    25    22    1
28    26    10    2
29    27    20    1
30    28    27    1
31    29    27    1
32    30    29    1
33    31    29    1
34    32    27    1
35    32    29    1
36    33    32    1
37    34    32    1
@<TRIPOS>SUBSTRUCTURE
1   LIG    1    
 
########## Name        : 1VRT.lig
########## Description : AM1BCC_CHARGES =  -0.0002 ORIGINAL_CHARGES =  -0.0000

@<TRIPOS>MOLECULE
1VRT.lig
34    37    1     0     0    
SMALL
USER_CHARGES
@<TRIPOS>ATOM
1     N1       4.0540  -36.9310   22.2210 N.ar    1  LIG  -0.6650  -0.6200 
2     C1       4.9660  -36.2380   22.9390 C.ar    1  LIG   0.3947   0.1600 
3     H1       6.0082  -36.2811   22.6707 H       1  LIG   0.0281   0.1500 
4     C2       4.6240  -35.4500   24.0360 C.ar    1  LIG  -0.2334  -0.1500 
5     H2       5.3884  -34.9151   24.5740 H       1  LIG   0.1480   0.1500 
6     C3       3.3050  -35.3690   24.4150 C.ar    1  LIG  -0.0698  -0.1435 
7     C4       2.3460  -36.0770   23.6860 C.ar    1  LIG  -0.0398   0.1170 
8     N2       0.9890  -36.0280   24.1030 N.am    1  LIG  -0.4596  -0.5470 
9     H3       0.7643  -35.9928   25.0860 H       1  LIG   0.3311   0.3700 
10    C5      -0.1450  -36.0180   23.4080 C.2     1  LIG   0.7361   0.5438 
11    C6      -0.1190  -36.0770   21.8860 C.ar    1  LIG  -0.2550   0.0862 
12    C7      -1.1230  -35.3990   21.1890 C.ar    1  LIG  -0.0321  -0.1500 
13    H4      -1.7552  -34.6955   21.7041 H       1  LIG   0.1623   0.1500 
14    C8      -1.2960  -35.6300   19.8690 C.ar    1  LIG  -0.2723  -0.1500 
15    H5      -2.0662  -35.1073   19.3273 H       1  LIG   0.1522   0.1500 
16    C9      -0.4670  -36.5450   19.2400 C.ar    1  LIG   0.4373   0.1600 
17    H6      -0.5947  -36.7554   18.1915 H       1  LIG   0.0280   0.1500 
18    N3       0.5220  -37.2120   19.8740 N.ar    1  LIG  -0.6893  -0.6200 
19    C10      0.7040  -36.9790   21.1800 C.ar    1  LIG   0.6480   0.4100 
20    N4       1.7670  -37.6730   21.8260 N.pl3   1  LIG  -0.6924  -0.3690 
21    C11      2.7540  -36.8570   22.5840 C.ar    1  LIG   0.5805   0.4100 
22    C12      2.9040  -34.5090   25.6010 C.3     1  LIG  -0.0620   0.1435 
23    H7       2.2235  -33.7630   25.2820 H       1  LIG   0.0570   0.0000 
24    H8       2.4436  -35.1154   26.3371 H       1  LIG   0.0495   0.0000 
25    H9       3.7654  -34.0491   26.0108 H       1  LIG   0.0519   0.0000 
26    O1      -1.2400  -35.9060   23.9770 O.2     1  LIG  -0.6361  -0.5700 
27    C13      2.3440  -38.7570   21.0360 C.3     1  LIG   0.1354   0.0690 
28    H10      3.1238  -38.3754   20.4296 H       1  LIG   0.0981   0.1000 
29    C14      2.9380  -39.8900   21.8010 C.3     1  LIG  -0.1181  -0.2000 
30    H11      3.8890  -40.1268   21.3997 H       1  LIG   0.0732   0.1000 
31    H12      3.0430  -39.6129   22.8177 H       1  LIG   0.0789   0.1000 
32    C15      1.6390  -40.0610   21.0880 C.3     1  LIG  -0.1196  -0.2000 
33    H13      0.6832  -39.9283   21.5242 H       1  LIG   0.0807   0.1000 
34    H14      1.5292  -40.4423   20.1061 H       1  LIG   0.0733   0.1000 
@<TRIPOS>BOND
1     2     1     ar
2     3     2     1
3     4     2     ar
4     5     4     1
5     6     4     ar
6     7     6     ar
7     8     7     1
8     9     8     1
9     10    8     1
10    11    10    1
11    12    11    ar
12    13    12    1
13    14    12    ar
14    15    14    1
15    16    14    ar
16    17    16    1
17    18    16    ar
18    19    11    ar
19    19    18    ar
20    20    19    1
21    21    1     ar
22    21    7     ar
23    21    20    1
24    22    6     1
25    23    22    1
26    24    22    1
27    25    22    1
28    26    10    2
29    27    20    1
30    28    27    1
31    29    27    1
32    30    29    1
33    31    29    1
34    32    27    1
35    32    29    1
36    33    32    1
37    34    32    1
@<TRIPOS>SUBSTRUCTURE
1   LIG    1    
 
########## Name        : 1VRT.lig
########## Description : AM1BCC_CHARGES =  -0.0002 ORIGINAL_CHARGES =  -0.0000

@<TRIPOS>MOLECULE
1VRT.lig
34    37    1     0     0    
SMALL
USER_CHARGES
@<TRIPOS>ATOM
1     N1       4.0540  -36.9310   22.2210 N.ar    1  LIG  -0.6650  -0.6200 
2     C1       4.9660  -36.2380   22.9390 C.ar    1  LIG   0.3947   0.1600 
3     H1       6.0082  -36.2811   22.6707 H       1  LIG   0.0281   0.1500 
4     C2       4.6240  -35.4500   24.0360 C.ar    1  LIG  -0.2334  -0.1500 
5     H2       5.3884  -34.9151   24.5740 H       1  LIG   0.1480   0.1500 
6     C3       3.3050  -35.3690   24.4150 C.ar    1  LIG  -0.0698  -0.1435 
7     C4       2.3460  -36.0770   23.6860 C.ar    1  LIG  -0.0398   0.1170 
8     N2       0.9890  -36.0280   24.1030 N.am    1  LIG  -0.4596  -0.5470 
9     H3       0.7643  -35.9928   25.0860 H       1  LIG   0.3311   0.3700 
10    C5      -0.1450  -36.0180   23.4080 C.2     1  LIG   0.7361   0.5438 
11    C6      -0.1190  -36.0770   21.8860 C.ar    1  LIG  -0.2550   0.0862 
12    C7      -1.1230  -35.3990   21.1890 C.ar    1  LIG  -0.0321  -0.1500 
13    H4      -1.7552  -34.6955   21.7041 H       1  LIG   0.1623   0.1500 
14    C8      -1.2960  -35.6300   19.8690 C.ar    1  LIG  -0.2723  -0.1500 
15    H5      -2.0662  -35.1073   19.3273 H       1  LIG   0.1522   0.1500 
16    C9      -0.4670  -36.5450   19.2400 C.ar    1  LIG   0.4373   0.1600 
17    H6      -0.5947  -36.7554   18.1915 H       1  LIG   0.0280   0.1500 
18    N3       0.5220  -37.2120   19.8740 N.ar    1  LIG  -0.6893  -0.6200 
19    C10      0.7040  -36.9790   21.1800 C.ar    1  LIG   0.6480   0.4100 
20    N4       1.7670  -37.6730   21.8260 N.pl3   1  LIG  -0.6924  -0.3690 
21    C11      2.7540  -36.8570   22.5840 C.ar    1  LIG   0.5805   0.4100 
22    C12      2.9040  -34.5090   25.6010 C.3     1  LIG  -0.0620   0.1435 
23    H7       2.2235  -33.7630   25.2820 H       1  LIG   0.0570   0.0000 
24    H8       2.4436  -35.1154   26.3371 H       1  LIG   0.0495   0.0000 
25    H9       3.7654  -34.0491   26.0108 H       1  LIG   0.0519   0.0000 
26    O1      -1.2400  -35.9060   23.9770 O.2     1  LIG  -0.6361  -0.5700 
27    C13      2.3440  -38.7570   21.0360 C.3     1  LIG   0.1354   0.0690 
28    H10      3.1238  -38.3754   20.4296 H       1  LIG   0.0981   0.1000 
29    C14      2.9380  -39.8900   21.8010 C.3     1  LIG  -0.1181  -0.2000 
30    H11      3.8890  -40.1268   21.3997 H       1  LIG   0.0732   0.1000 
31    H12      3.0430  -39.6129   22.8177 H       1  LIG   0.0789   0.1000 
32    C15      1.6390  -40.0610   21.0880 C.3     1  LIG  -0.1196  -0.2000 
33    H13      0.6832  -39.9283   21.5242 H       1  LIG   0.0807   0.1000 
34    H14      1.5292  -40.4423   20.1061 H       1  LIG   0.0733   0.1000 
@<TRIPOS>BOND
1     2     1     ar
2     3     2     1
3     4     2     ar
4     5     4     1
5     6     4     ar
6     7     6     ar
7     8     7     1
8     9     8     1
9     10    8     1
10    11    10    1
11    12    11    ar
12    13    12    1
13    14    12    ar
14    15    14    1
15    16    14    ar
16    17    16    1
17    18    16    ar
18    19    11    ar
19    19    18    ar
20    20    19    1
21    21    1     ar
22    21    7     ar
23    21    20    1
24    22    6     1
25    23    22    1
26    24    22    1
27    25    22    1
28    26    10    2
29    27    20    1
30    28    27    1
31    29    27    1
32    30    29    1
33    31    29    1
34    32    27    1
35    32    29    1
36    33    32    1
37    34    32    1
@<TRIPOS>SUBSTRUCTURE
1   LIG    1    
 
########## Name        : 1VRT.lig
########## Description : AM1BCC_CHARGES =  -0.0002 ORIGINAL_CHARGES =  -0.0000

@<TRIPOS>MOLECULE
1VRT.lig
34    37    1     0     0    
SMALL
USER_CHARGES
@<TRIPOS>ATOM
1     N1       4.0540  -36.9310   22.2210 N.ar    1  LIG  -0.6650  -0.6200 
2     C1       4.9660  -36.2380   22.9390 C.ar    1  LIG   0.3947   0.1600 
3     H1       6.0082  -36.2811   22.6707 H       1  LIG   0.0281   0.1500 
4     C2       4.6240  -35.4500   24.0360 C.ar    1  LIG  -0.2334  -0.1500 
5     H2       5.3884  -34.9151   24.5740 H       1  LIG   0.1480   0.1500 
6     C3       3.3050  -35.3690   24.4150 C.ar    1  LIG  -0.0698  -0.1435 
7     C4       2.3460  -36.0770   23.6860 C.ar    1  LIG  -0.0398   0.1170 
8     N2       0.9890  -36.0280   24.1030 N.am    1  LIG  -0.4596  -0.5470 
9     H3       0.7643  -35.9928   25.0860 H       1  LIG   0.3311   0.3700 
10    C5      -0.1450  -36.0180   23.4080 C.2     1  LIG   0.7361   0.5438 
11    C6      -0.1190  -36.0770   21.8860 C.ar    1  LIG  -0.2550   0.0862 
12    C7      -1.1230  -35.3990   21.1890 C.ar    1  LIG  -0.0321  -0.1500 
13    H4      -1.7552  -34.6955   21.7041 H       1  LIG   0.1623   0.1500 
14    C8      -1.2960  -35.6300   19.8690 C.ar    1  LIG  -0.2723  -0.1500 
15    H5      -2.0662  -35.1073   19.3273 H       1  LIG   0.1522   0.1500 
16    C9      -0.4670  -36.5450   19.2400 C.ar    1  LIG   0.4373   0.1600 
17    H6      -0.5947  -36.7554   18.1915 H       1  LIG   0.0280   0.1500 
18    N3       0.5220  -37.2120   19.8740 N.ar    1  LIG  -0.6893  -0.6200 
19    C10      0.7040  -36.9790   21.1800 C.ar    1  LIG   0.6480   0.4100 
20    N4       1.7670  -37.6730   21.8260 N.pl3   1  LIG  -0.6924  -0.3690 
21    C11      2.7540  -36.8570   22.5840 C.ar    1  LIG   0.5805   0.4100 
22    C12      2.9040  -34.5090   25.6010 C.3     1  LIG  -0.0620   0.1435 
23    H7       2.2235  -33.7630   25.2820 H       1  LIG   0.0570   0.0000 
24    H8       2.4436  -35.1154   26.3371 H       1  LIG   0.0495   0.0000 
25    H9       3.7654  -34.0491   26.0108 H       1  LIG   0.0519   0.0000 
26    O1      -1.2400  -35.9060   23.9770 O.2     1  LIG  -0.6361  -0.5700 
27    C13      2.3440  -38.7570   21.0360 C.3     1  LIG   0.1354   0.0690 
28    H10      3.1238  -38.3754   20.4296 H       1  LIG   0.0981   0.1000 
29    C14      2.9380  -39.8900   21.8010 C.3     1  LIG  -0.1181  -0.2000 
30    H11      3.8890  -40.1268   21.3997 H       1  LIG   0.0732   0.1000 
31    H12      3.0430  -39.6129   22.8177 H       1  LIG   0.0789   0.1000 
32    C15      1.6390  -40.0610   21.0880 C.3     1  LIG  -0.1196  -0.2000 
33    H13      0.6832  -39.9283   21.5242 H       1  LIG   0.0807   0.1000 
34    H14      1.5292  -40.4423   20.1061 H       1  LIG   0.0733   0.1000 
@<TRIPOS>BOND
1     2     1     ar
2     3     2     1
3     4     2     ar
4     5     4     1
5     6     4     ar
6     7     6     ar
7     8     7     1
8     9     8     1
9     10    8     1
10    11    10    1
11    12    11    ar
12    13    12    1
13    14    12    ar
14    15    14    1
15    16    14    ar
16    17    16    1
17    18    16    ar
18    19    11    ar
19    19    18    ar
20    20    19    1
21    21    1     ar
22    21    7     ar
23    21    20    1
24    22    6     1
25    23    22    1
26    24    22    1
27    25    22    1
28    26    10    2
29    27    20    1
30    28    27    1
31    29    27    1
32    30    29    1
33    31    29    1
34    32    27    1
35    32    29    1
36    33    32    1
37    34    32    1
@<TRIPOS>SUBSTRUCTURE
1   LIG    1    
 
########## Name        : 1VRT.lig
########## Description : AM1BCC_CHARGES =  -0.0002 ORIGINAL_CHARGES =  -0.0000

@<TRIPOS>MOLECULE
1VRT.lig
34    37    1     0     0    
SMALL
USER_CHARGES
@<TRIPOS>ATOM
1     N1       4.0540  -36.9310   22.2210 N.ar    1  LIG  -0.6650  -0.6200 
2     C1       4.9660  -36.2380   22.9390 C.ar    1  LIG   0.3947   0.1600 
3     H1       6.0082  -36.2811   22.6707 H       1  LIG   0.0281   0.1500 
4     C2       4.6240  -35.4500   24.0360 C.ar    1  LIG  -0.2334  -0.1500 
5     H2       5.3884  -34.9151   24.5740 H       1  LIG   0.1480   0.1500 
6     C3       3.3050  -35.3690   24.4150 C.ar    1  LIG  -0.0698  -0.1435 
7     C4       2.3460  -36.0770   23.6860 C.ar    1  LIG  -0.0398   0.1170 
8     N2       0.9890  -36.0280   24.1030 N.am    1  LIG  -0.4596  -0.5470 
9     H3       0.7643  -35.9928   25.0860 H       1  LIG   0.3311   0.3700 
10    C5      -0.1450  -36.0180   23.4080 C.2     1  LIG   0.7361   0.5438 
11    C6      -0.1190  -36.0770   21.8860 C.ar    1  LIG  -0.2550   0.0862 
12    C7      -1.1230  -35.3990   21.1890 C.ar    1  LIG  -0.0321  -0.1500 
13    H4      -1.7552  -34.6955   21.7041 H       1  LIG   0.1623   0.1500 
14    C8      -1.2960  -35.6300   19.8690 C.ar    1  LIG  -0.2723  -0.1500 
15    H5      -2.0662  -35.1073   19.3273 H       1  LIG   0.1522   0.1500 
16    C9      -0.4670  -36.5450   19.2400 C.ar    1  LIG   0.4373   0.1600 
17    H6      -0.5947  -36.7554   18.1915 H       1  LIG   0.0280   0.1500 
18    N3       0.5220  -37.2120   19.8740 N.ar    1  LIG  -0.6893  -0.6200 
19    C10      0.7040  -36.9790   21.1800 C.ar    1  LIG   0.6480   0.4100 
20    N4       1.7670  -37.6730   21.8260 N.pl3   1  LIG  -0.6924  -0.3690 
21    C11      2.7540  -36.8570   22.5840 C.ar    1  LIG   0.5805   0.4100 
22    C12      2.9040  -34.5090   25.6010 C.3     1  LIG  -0.0620   0.1435 
23    H7       2.2235  -33.7630   25.2820 H       1  LIG   0.0570   0.0000 
24    H8       2.4436  -35.1154   26.3371 H       1  LIG   0.0495   0.0000 
25    H9       3.7654  -34.0491   26.0108 H       1  LIG   0.0519   0.0000 
26    O1      -1.2400  -35.9060   23.9770 O.2     1  LIG  -0.6361  -0.5700 
27    C13      2.3440  -38.7570   21.0360 C.3     1  LIG   0.1354   0.0690 
28    H10      3.1238  -38.3754   20.4296 H       1  LIG   0.0981   0.1000 
29    C14      2.9380  -39.8900   21.8010 C.3     1  LIG  -0.1181  -0.2000 
30    H11      3.8890  -40.1268   21.3997 H       1  LIG   0.0732   0.1000 
31    H12      3.0430  -39.6129   22.8177 H       1  LIG   0.0789   0.1000 
32    C15      1.6390  -40.0610   21.0880 C.3     1  LIG  -0.1196  -0.2000 
33    H13      0.6832  -39.9283   21.5242 H       1  LIG   0.0807   0.1000 
34    H14      1.5292  -40.4423   20.1061 H       1  LIG   0.0733   0.1000 
@<TRIPOS>BOND
1     2     1     ar
2     3     2     1
3     4     2     ar
4     5     4     1
5     6     4     ar
6     7     6     ar
7     8     7     1
8     9     8     1
9     10    8     1
10    11    10    1
11    12    11    ar
12    13    12    1
13    14    12    ar
14    15    14    1
15    16    14    ar
16    17    16    1
17    18    16    ar
18    19    11    ar
19    19    18    ar
20    20    19    1
21    21    1     ar
22    21    7     ar
23    21    20    1
24    22    6     1
25    23    22    1
26    24    22    1
27    25    22    1
28    26    10    2
29    27    20    1
30    28    27    1
31    29    27    1
32    30    29    1
33    31    29    1
34    32    27    1
35    32    29    1
36    33    32    1
37    34    32    1
@<TRIPOS>SUBSTRUCTURE
1   LIG    1    
 
########## Name        : 1VRT.lig
########## Description : AM1BCC_CHARGES =  -0.0002 ORIGINAL_CHARGES =  -0.0000

@<TRIPOS>MOLECULE
1VRT.lig
34    37    1     0     0    
SMALL
USER_CHARGES
@<TRIPOS>ATOM
1     N1       4.0540  -36.9310   22.2210 N.ar    1  LIG  -0.6650  -0.6200 
2     C1       4.9660  -36.2380   22.9390 C.ar    1  LIG   0.3947   0.1600 
3     H1       6.0082  -36.2811   22.6707 H       1  LIG   0.0281   0.1500 
4     C2       4.6240  -35.4500   24.0360 C.ar    1  LIG  -0.2334  -0.1500 
5     H2       5.3884  -34.9151   24.5740 H       1  LIG   0.1480   0.1500 
6     C3       3.3050  -35.3690   24.4150 C.ar    1  LIG  -0.0698  -0.1435 
7     C4       2.3460  -36.0770   23.6860 C.ar    1  LIG  -0.0398   0.1170 
8     N2       0.9890  -36.0280   24.1030 N.am    1  LIG  -0.4596  -0.5470 
9     H3       0.7643  -35.9928   25.0860 H       1  LIG   0.3311   0.3700 
10    C5      -0.1450  -36.0180   23.4080 C.2     1  LIG   0.7361   0.5438 
11    C6      -0.1190  -36.0770   21.8860 C.ar    1  LIG  -0.2550   0.0862 
12    C7      -1.1230  -35.3990   21.1890 C.ar    1  LIG  -0.0321  -0.1500 
13    H4      -1.7552  -34.6955   21.7041 H       1  LIG   0.1623   0.1500 
14    C8      -1.2960  -35.6300   19.8690 C.ar    1  LIG  -0.2723  -0.1500 
15    H5      -2.0662  -35.1073   19.3273 H       1  LIG   0.1522   0.1500 
16    C9      -0.4670  -36.5450   19.2400 C.ar    1  LIG   0.4373   0.1600 
17    H6      -0.5947  -36.7554   18.1915 H       1  LIG   0.0280   0.1500 
18    N3       0.5220  -37.2120   19.8740 N.ar    1  LIG  -0.6893  -0.6200 
19    C10      0.7040  -36.9790   21.1800 C.ar    1  LIG   0.6480   0.4100 
20    N4       1.7670  -37.6730   21.8260 N.pl3   1  LIG  -0.6924  -0.3690 
21    C11      2.7540  -36.8570   22.5840 C.ar    1  LIG   0.5805   0.4100 
22    C12      2.9040  -34.5090   25.6010 C.3     1  LIG  -0.0620   0.1435 
23    H7       2.2235  -33.7630   25.2820 H       1  LIG   0.0570   0.0000 
24    H8       2.4436  -35.1154   26.3371 H       1  LIG   0.0495   0.0000 
25    H9       3.7654  -34.0491   26.0108 H       1  LIG   0.0519   0.0000 
26    O1      -1.2400  -35.9060   23.9770 O.2     1  LIG  -0.6361  -0.5700 
27    C13      2.3440  -38.7570   21.0360 C.3     1  LIG   0.1354   0.0690 
28    H10      3.1238  -38.3754   20.4296 H       1  LIG   0.0981   0.1000 
29    C14      2.9380  -39.8900   21.8010 C.3     1  LIG  -0.1181  -0.2000 
30    H11      3.8890  -40.1268   21.3997 H       1  LIG   0.0732   0.1000 
31    H12      3.0430  -39.6129   22.8177 H       1  LIG   0.0789   0.1000 
32    C15      1.6390  -40.0610   21.0880 C.3     1  LIG  -0.1196  -0.2000 
33    H13      0.6832  -39.9283   21.5242 H       1  LIG   0.0807   0.1000 
34    H14      1.5292  -40.4423   20.1061 H       1  LIG   0.0733   0.1000 
@<TRIPOS>BOND
1     2     1     ar
2     3     2     1
3     4     2     ar
4     5     4     1
5     6     4     ar
6     7     6     ar
7     8     7     1
8     9     8     1
9     10    8     1
10    11    10    1
11    12    11    ar
12    13    12    1
13    14    12    ar
14    15    14    1
15    16    14    ar
16    17    16    1
17    18    16    ar
18    19    11    ar
19    19    18    ar
20    20    19    1
21    21    1     ar
22    21    7     ar
23    21    20    1
24    22    6     1
25    23    22    1
26    24    22    1
27    25    22    1
28    26    10    2
29    27    20    1
30    28    27    1
31    29    27    1
32    30    29    1
33    31    29    1
34    32    27    1
35    32    29    1
36    33    32    1
37    34    32    1
@<TRIPOS>SUBSTRUCTURE
1   LIG    1    
 
########## Name        : 1VRT.lig
########## Description : AM1BCC_CHARGES =  -0.0002 ORIGINAL_CHARGES =  -0.0000

@<TRIPOS>MOLECULE
1VRT.lig
34    37    1     0     0    
SMALL
USER_CHARGES
@<TRIPOS>ATOM
1     N1       4.0540  -36.9310   22.2210 N.ar    1  LIG  -0.6650  -0.6200 
2     C1       4.9660  -36.2380   22.9390 C.ar    1  LIG   0.3947   0.1600 
3     H1       6.0082  -36.2811   22.6707 H       1  LIG   0.0281   0.1500 
4     C2       4.6240  -35.4500   24.0360 C.ar    1  LIG  -0.2334  -0.1500 
5     H2       5.3884  -34.9151   24.5740 H       1  LIG   0.1480   0.1500 
6     C3       3.3050  -35.3690   24.4150 C.ar    1  LIG  -0.0698  -0.1435 
7     C4       2.3460  -36.0770   23.6860 C.ar    1  LIG  -0.0398   0.1170 
8     N2       0.9890  -36.0280   24.1030 N.am    1  LIG  -0.4596  -0.5470 
9     H3       0.7643  -35.9928   25.0860 H       1  LIG   0.3311   0.3700 
10    C5      -0.1450  -36.0180   23.4080 C.2     1  LIG   0.7361   0.5438 
11    C6      -0.1190  -36.0770   21.8860 C.ar    1  LIG  -0.2550   0.0862 
12    C7      -1.1230  -35.3990   21.1890 C.ar    1  LIG  -0.0321  -0.1500 
13    H4      -1.7552  -34.6955   21.7041 H       1  LIG   0.1623   0.1500 
14    C8      -1.2960  -35.6300   19.8690 C.ar    1  LIG  -0.2723  -0.1500 
15    H5      -2.0662  -35.1073   19.3273 H       1  LIG   0.1522   0.1500 
16    C9      -0.4670  -36.5450   19.2400 C.ar    1  LIG   0.4373   0.1600 
17    H6      -0.5947  -36.7554   18.1915 H       1  LIG   0.0280   0.1500 
18    N3       0.5220  -37.2120   19.8740 N.ar    1  LIG  -0.6893  -0.6200 
19    C10      0.7040  -36.9790   21.1800 C.ar    1  LIG   0.6480   0.4100 
20    N4       1.7670  -37.6730   21.8260 N.pl3   1  LIG  -0.6924  -0.3690 
21    C11      2.7540  -36.8570   22.5840 C.ar    1  LIG   0.5805   0.4100 
22    C12      2.9040  -34.5090   25.6010 C.3     1  LIG  -0.0620   0.1435 
23    H7       2.2235  -33.7630   25.2820 H       1  LIG   0.0570   0.0000 
24    H8       2.4436  -35.1154   26.3371 H       1  LIG   0.0495   0.0000 
25    H9       3.7654  -34.0491   26.0108 H       1  LIG   0.0519   0.0000 
26    O1      -1.2400  -35.9060   23.9770 O.2     1  LIG  -0.6361  -0.5700 
27    C13      2.3440  -38.7570   21.0360 C.3     1  LIG   0.1354   0.0690 
28    H10      3.1238  -38.3754   20.4296 H       1  LIG   0.0981   0.1000 
29    C14      2.9380  -39.8900   21.8010 C.3     1  LIG  -0.1181  -0.2000 
30    H11      3.8890  -40.1268   21.3997 H       1  LIG   0.0732   0.1000 
31    H12      3.0430  -39.6129   22.8177 H       1  LIG   0.0789   0.1000 
32    C15      1.6390  -40.0610   21.0880 C.3     1  LIG  -0.1196  -0.2000 
33    H13      0.6832  -39.9283   21.5242 H       1  LIG   0.0807   0.1000 
34    H14      1.5292  -40.4423   20.1061 H       1  LIG   0.0733   0.1000 
@<TRIPOS>BOND
1     2     1     ar
2     3     2     1
3     4     2     ar
4     5     4     1
5     6     4     ar
6     7     6     ar
7     8     7     1
8     9     8     1
9     10    8     1
10    11    10    1
11    12    11    ar
12    13    12    1
13    14    12    ar
14    15    14    1
15    16    14    ar
16    17    16    1
17    18    16    ar
18    19    11    ar
19    19    18    ar
20    20    19    1
21    21    1     ar
22    21    7     ar
23    21    20    1
24    22    6     1
25    23    22    1
26    24    22    1
27    25    22    1
28    26    10    2
29    27    20    1
30    28    27    1
31    29    27    1
32    30    29    1
33    31    29    1
34    32    27    1
35    32    29    1
36    33    32    1
37    34    32    1
@<TRIPOS>SUBSTRUCTURE
1   LIG    1    
 
########## Name        : 1VRT.lig
########## Description : AM1BCC_CHARGES =  -0.0002 ORIGINAL_CHARGES =  -0.0000

@<TRIPOS>MOLECULE
1VRT.lig
34    37    1     0     0    
SMALL
USER_CHARGES
@<TRIPOS>ATOM
1     N1       4.0540  -36.9310   22.2210 N.ar    1  LIG  -0.6650  -0.6200 
2     C1       4.9660  -36.2380   22.9390 C.ar    1  LIG   0.3947   0.1600 
3     H1       6.0082  -36.2811   22.6707 H       1  LIG   0.0281   0.1500 
4     C2       4.6240  -35.4500   24.0360 C.ar    1  LIG  -0.2334  -0.1500 
5     H2       5.3884  -34.9151   24.5740 H       1  LIG   0.1480   0.1500 
6     C3       3.3050  -35.3690   24.4150 C.ar    1  LIG  -0.0698  -0.1435 
7     C4       2.3460  -36.0770   23.6860 C.ar    1  LIG  -0.0398   0.1170 
8     N2       0.9890  -36.0280   24.1030 N.am    1  LIG  -0.4596  -0.5470 
9     H3       0.7643  -35.9928   25.0860 H       1  LIG   0.3311   0.3700 
10    C5      -0.1450  -36.0180   23.4080 C.2     1  LIG   0.7361   0.5438 
11    C6      -0.1190  -36.0770   21.8860 C.ar    1  LIG  -0.2550   0.0862 
12    C7      -1.1230  -35.3990   21.1890 C.ar    1  LIG  -0.0321  -0.1500 
13    H4      -1.7552  -34.6955   21.7041 H       1  LIG   0.1623   0.1500 
14    C8      -1.2960  -35.6300   19.8690 C.ar    1  LIG  -0.2723  -0.1500 
15    H5      -2.0662  -35.1073   19.3273 H       1  LIG   0.1522   0.1500 
16    C9      -0.4670  -36.5450   19.2400 C.ar    1  LIG   0.4373   0.1600 
17    H6      -0.5947  -36.7554   18.1915 H       1  LIG   0.0280   0.1500 
18    N3       0.5220  -37.2120   19.8740 N.ar    1  LIG  -0.6893  -0.6200 
19    C10      0.7040  -36.9790   21.1800 C.ar    1  LIG   0.6480   0.4100 
20    N4       1.7670  -37.6730   21.8260 N.pl3   1  LIG  -0.6924  -0.3690 
21    C11      2.7540  -36.8570   22.5840 C.ar    1  LIG   0.5805   0.4100 
22    C12      2.9040  -34.5090   25.6010 C.3     1  LIG  -0.0620   0.1435 
23    H7       2.2235  -33.7630   25.2820 H       1  LIG   0.0570   0.0000 
24    H8       2.4436  -35.1154   26.3371 H       1  LIG   0.0495   0.0000 
25    H9       3.7654  -34.0491   26.0108 H       1  LIG   0.0519   0.0000 
26    O1      -1.2400  -35.9060   23.9770 O.2     1  LIG  -0.6361  -0.5700 
27    C13      2.3440  -38.7570   21.0360 C.3     1  LIG   0.1354   0.0690 
28    H10      3.1238  -38.3754   20.4296 H       1  LIG   0.0981   0.1000 
29    C14      2.9380  -39.8900   21.8010 C.3     1  LIG  -0.1181  -0.2000 
30    H11      3.8890  -40.1268   21.3997 H       1  LIG   0.0732   0.1000 
31    H12      3.0430  -39.6129   22.8177 H       1  LIG   0.0789   0.1000 
32    C15      1.6390  -40.0610   21.0880 C.3     1  LIG  -0.1196  -0.2000 
33    H13      0.6832  -39.9283   21.5242 H       1  LIG   0.0807   0.1000 
34    H14      1.5292  -40.4423   20.1061 H       1  LIG   0.0733   0.1000 
@<TRIPOS>BOND
1     2     1     ar
2     3     2     1
3     4     2     ar
4     5     4     1
5     6     4     ar
6     7     6     ar
7     8     7     1
8     9     8     1
9     10    8     1
10    11    10    1
11    12    11    ar
12    13    12    1
13    14    12    ar
14    15    14    1
15    16    14    ar
16    17    16    1
17    18    16    ar
18    19    11    ar
19    19    18    ar
20    20    19    1
21    21    1     ar
22    21    7     ar
23    21    20    1
24    22    6     1
25    23    22    1
26    24    22    1
27    25    22    1
28    26    10    2
29    27    20    1
30    28    27    1
31    29    27    1
32    30    29    1
33    31    29    1
34    32    27    1
35    32    29    1
36    33    32    1
37    34    32    1
@<TRIPOS>SUBSTRUCTURE
1   LIG    1    
 
########## Name        : 1VRT.lig
########## Description : AM1BCC_CHARGES =  -0.0002 ORIGINAL_CHARGES =  -0.0000

@<TRIPOS>MOLECULE
1VRT.lig
34    37    1     0     0    
SMALL
USER_CHARGES
@<TRIPOS>ATOM
1     N1       4.0540  -36.9310   22.2210 N.ar    1  LIG  -0.6650  -0.6200 
2     C1       4.9660  -36.2380   22.9390 C.ar    1  LIG   0.3947   0.1600 
3     H1       6.0082  -36.2811   22.6707 H       1  LIG   0.0281   0.1500 
4     C2       4.6240  -35.4500   24.0360 C.ar    1  LIG  -0.2334  -0.1500 
5     H2       5.3884  -34.9151   24.5740 H       1  LIG   0.1480   0.1500 
6     C3       3.3050  -35.3690   24.4150 C.ar    1  LIG  -0.0698  -0.1435 
7     C4       2.3460  -36.0770   23.6860 C.ar    1  LIG  -0.0398   0.1170 
8     N2       0.9890  -36.0280   24.1030 N.am    1  LIG  -0.4596  -0.5470 
9     H3       0.7643  -35.9928   25.0860 H       1  LIG   0.3311   0.3700 
10    C5      -0.1450  -36.0180   23.4080 C.2     1  LIG   0.7361   0.5438 
11    C6      -0.1190  -36.0770   21.8860 C.ar    1  LIG  -0.2550   0.0862 
12    C7      -1.1230  -35.3990   21.1890 C.ar    1  LIG  -0.0321  -0.1500 
13    H4      -1.7552  -34.6955   21.7041 H       1  LIG   0.1623   0.1500 
14    C8      -1.2960  -35.6300   19.8690 C.ar    1  LIG  -0.2723  -0.1500 
15    H5      -2.0662  -35.1073   19.3273 H       1  LIG   0.1522   0.1500 
16    C9      -0.4670  -36.5450   19.2400 C.ar    1  LIG   0.4373   0.1600 
17    H6      -0.5947  -36.7554   18.1915 H       1  LIG   0.0280   0.1500 
18    N3       0.5220  -37.2120   19.8740 N.ar    1  LIG  -0.6893  -0.6200 
19    C10      0.7040  -36.9790   21.1800 C.ar    1  LIG   0.6480   0.4100 
20    N4       1.7670  -37.6730   21.8260 N.pl3   1  LIG  -0.6924  -0.3690 
21    C11      2.7540  -36.8570   22.5840 C.ar    1  LIG   0.5805   0.4100 
22    C12      2.9040  -34.5090   25.6010 C.3     1  LIG  -0.0620   0.1435 
23    H7       2.2235  -33.7630   25.2820 H       1  LIG   0.0570   0.0000 
24    H8       2.4436  -35.1154   26.3371 H       1  LIG   0.0495   0.0000 
25    H9       3.7654  -34.0491   26.0108 H       1  LIG   0.0519   0.0000 
26    O1      -1.2400  -35.9060   23.9770 O.2     1  LIG  -0.6361  -0.5700 
27    C13      2.3440  -38.7570   21.0360 C.3     1  LIG   0.1354   0.0690 
28    H10      3.1238  -38.3754   20.4296 H       1  LIG   0.0981   0.1000 
29    C14      2.9380  -39.8900   21.8010 C.3     1  LIG  -0.1181  -0.2000 
30    H11      3.8890  -40.1268   21.3997 H       1  LIG   0.0732   0.1000 
31    H12      3.0430  -39.6129   22.8177 H       1  LIG   0.0789   0.1000 
32    C15      1.6390  -40.0610   21.0880 C.3     1  LIG  -0.1196  -0.2000 
33    H13      0.6832  -39.9283   21.5242 H       1  LIG   0.0807   0.1000 
34    H14      1.5292  -40.4423   20.1061 H       1  LIG   0.0733   0.1000 
@<TRIPOS>BOND
1     2     1     ar
2     3     2     1
3     4     2     ar
4     5     4     1
5     6     4     ar
6     7     6     ar
7     8     7     1
8     9     8     1
9     10    8     1
10    11    10    1
11    12    11    ar
12    13    12    1
13    14    12    ar
14    15    14    1
15    16    14    ar
16    17    16    1
17    18    16    ar
18    19    11    ar
19    19    18    ar
20    20    19    1
21    21    1     ar
22    21    7     ar
23    21    20    1
24    22    6     1
25    23    22    1
26    24    22    1
27    25    22    1
28    26    10    2
29    27    20    1
30    28    27    1
31    29    27    1
32    30    29    1
33    31    29    1
34    32    27    1
35    32    29    1
36    33    32    1
37    34    32    1
@<TRIPOS>SUBSTRUCTURE
1   LIG    1    
 
########## Name        : 1VRT.lig
########## Description : AM1BCC_CHARGES =  -0.0002 ORIGINAL_CHARGES =  -0.0000

@<TRIPOS>MOLECULE
1VRT.lig
34    37    1     0     0    
SMALL
USER_CHARGES
@<TRIPOS>ATOM
1     N1       4.0540  -36.9310   22.2210 N.ar    1  LIG  -0.6650  -0.6200 
2     C1       4.9660  -36.2380   22.9390 C.ar    1  LIG   0.3947   0.1600 
3     H1       6.0082  -36.2811   22.6707 H       1  LIG   0.0281   0.1500 
4     C2       4.6240  -35.4500   24.0360 C.ar    1  LIG  -0.2334  -0.1500 
5     H2       5.3884  -34.9151   24.5740 H       1  LIG   0.1480   0.1500 
6     C3       3.3050  -35.3690   24.4150 C.ar    1  LIG  -0.0698  -0.1435 
7     C4       2.3460  -36.0770   23.6860 C.ar    1  LIG  -0.0398   0.1170 
8     N2       0.9890  -36.0280   24.1030 N.am    1  LIG  -0.4596  -0.5470 
9     H3       0.7643  -35.9928   25.0860 H       1  LIG   0.3311   0.3700 
10    C5      -0.1450  -36.0180   23.4080 C.2     1  LIG   0.7361   0.5438 
11    C6      -0.1190  -36.0770   21.8860 C.ar    1  LIG  -0.2550   0.0862 
12    C7      -1.1230  -35.3990   21.1890 C.ar    1  LIG  -0.0321  -0.1500 
13    H4      -1.7552  -34.6955   21.7041 H       1  LIG   0.1623   0.1500 
14    C8      -1.2960  -35.6300   19.8690 C.ar    1  LIG  -0.2723  -0.1500 
15    H5      -2.0662  -35.1073   19.3273 H       1  LIG   0.1522   0.1500 
16    C9      -0.4670  -36.5450   19.2400 C.ar    1  LIG   0.4373   0.1600 
17    H6      -0.5947  -36.7554   18.1915 H       1  LIG   0.0280   0.1500 
18    N3       0.5220  -37.2120   19.8740 N.ar    1  LIG  -0.6893  -0.6200 
19    C10      0.7040  -36.9790   21.1800 C.ar    1  LIG   0.6480   0.4100 
20    N4       1.7670  -37.6730   21.8260 N.pl3   1  LIG  -0.6924  -0.3690 
21    C11      2.7540  -36.8570   22.5840 C.ar    1  LIG   0.5805   0.4100 
22    C12      2.9040  -34.5090   25.6010 C.3     1  LIG  -0.0620   0.1435 
23    H7       2.2235  -33.7630   25.2820 H       1  LIG   0.0570   0.0000 
24    H8       2.4436  -35.1154   26.3371 H       1  LIG   0.0495   0.0000 
25    H9       3.7654  -34.0491   26.0108 H       1  LIG   0.0519   0.0000 
26    O1      -1.2400  -35.9060   23.9770 O.2     1  LIG  -0.6361  -0.5700 
27    C13      2.3440  -38.7570   21.0360 C.3     1  LIG   0.1354   0.0690 
28    H10      3.1238  -38.3754   20.4296 H       1  LIG   0.0981   0.1000 
29    C14      2.9380  -39.8900   21.8010 C.3     1  LIG  -0.1181  -0.2000 
30    H11      3.8890  -40.1268   21.3997 H       1  LIG   0.0732   0.1000 
31    H12      3.0430  -39.6129   22.8177 H       1  LIG   0.0789   0.1000 
32    C15      1.6390  -40.0610   21.0880 C.3     1  LIG  -0.1196  -0.2000 
33    H13      0.6832  -39.9283   21.5242 H       1  LIG   0.0807   0.1000 
34    H14      1.5292  -40.4423   20.1061 H       1  LIG   0.0733   0.1000 
@<TRIPOS>BOND
1     2     1     ar
2     3     2     1
3     4     2     ar
4     5     4     1
5     6     4     ar
6     7     6     ar
7     8     7     1
8     9     8     1
9     10    8     1
10    11    10    1
11    12    11    ar
12    13    12    1
13    14    12    ar
14    15    14    1
15    16    14    ar
16    17    16    1
17    18    16    ar
18    19    11    ar
19    19    18    ar
20    20    19    1
21    21    1     ar
22    21    7     ar
23    21    20    1
24    22    6     1
25    23    22    1
26    24    22    1
27    25    22    1
28    26    10    2
29    27    20    1
30    28    27    1
31    29    27    1
32    30    29    1
33    31    29    1
34    32    27    1
35    32    29    1
36    33    32    1
37    34    32    1
@<TRIPOS>SUBSTRUCTURE
1   LIG    1    
 
########## Name        : 1VRT.lig
########## Description : AM1BCC_CHARGES =  -0.0002 ORIGINAL_CHARGES =  -0.0000

@<TRIPOS>MOLECULE
1VRT.lig
34    37    1     0     0    
SMALL
USER_CHARGES
@<TRIPOS>ATOM
1     N1       4.0540  -36.9310   22.2210 N.ar    1  LIG  -0.6650  -0.6200 
2     C1       4.9660  -36.2380   22.9390 C.ar    1  LIG   0.3947   0.1600 
3     H1       6.0082  -36.2811   22.6707 H       1  LIG   0.0281   0.1500 
4     C2       4.6240  -35.4500   24.0360 C.ar    1  LIG  -0.2334  -0.1500 
5     H2       5.3884  -34.9151   24.5740 H       1  LIG   0.1480   0.1500 
6     C3       3.3050  -35.3690   24.4150 C.ar    1  LIG  -0.0698  -0.1435 
7     C4       2.3460  -36.0770   23.6860 C.ar    1  LIG  -0.0398   0.1170 
8     N2       0.9890  -36.0280   24.1030 N.am    1  LIG  -0.4596  -0.5470 
9     H3       0.7643  -35.9928   25.0860 H       1  LIG   0.3311   0.3700 
10    C5      -0.1450  -36.0180   23.4080 C.2     1  LIG   0.7361   0.5438 
11    C6      -0.1190  -36.0770   21.8860 C.ar    1  LIG  -0.2550   0.0862 
12    C7      -1.1230  -35.3990   21.1890 C.ar    1  LIG  -0.0321  -0.1500 
13    H4      -1.7552  -34.6955   21.7041 H       1  LIG   0.1623   0.1500 
14    C8      -1.2960  -35.6300   19.8690 C.ar    1  LIG  -0.2723  -0.1500 
15    H5      -2.0662  -35.1073   19.3273 H       1  LIG   0.1522   0.1500 
16    C9      -0.4670  -36.5450   19.2400 C.ar    1  LIG   0.4373   0.1600 
17    H6      -0.5947  -36.7554   18.1915 H       1  LIG   0.0280   0.1500 
18    N3       0.5220  -37.2120   19.8740 N.ar    1  LIG  -0.6893  -0.6200 
19    C10      0.7040  -36.9790   21.1800 C.ar    1  LIG   0.6480   0.4100 
20    N4       1.7670  -37.6730   21.8260 N.pl3   1  LIG  -0.6924  -0.3690 
21    C11      2.7540  -36.8570   22.5840 C.ar    1  LIG   0.5805   0.4100 
22    C12      2.9040  -34.5090   25.6010 C.3     1  LIG  -0.0620   0.1435 
23    H7       2.2235  -33.7630   25.2820 H       1  LIG   0.0570   0.0000 
24    H8       2.4436  -35.1154   26.3371 H       1  LIG   0.0495   0.0000 
25    H9       3.7654  -34.0491   26.0108 H       1  LIG   0.0519   0.0000 
26    O1      -1.2400  -35.9060   23.9770 O.2     1  LIG  -0.6361  -0.5700 
27    C13      2.3440  -38.7570   21.0360 C.3     1  LIG   0.1354   0.0690 
28    H10      3.1238  -38.3754   20.4296 H       1  LIG   0.0981   0.1000 
29    C14      2.9380  -39.8900   21.8010 C.3     1  LIG  -0.1181  -0.2000 
30    H11      3.8890  -40.1268   21.3997 H       1  LIG   0.0732   0.1000 
31    H12      3.0430  -39.6129   22.8177 H       1  LIG   0.0789   0.1000 
32    C15      1.6390  -40.0610   21.0880 C.3     1  LIG  -0.1196  -0.2000 
33    H13      0.6832  -39.9283   21.5242 H       1  LIG   0.0807   0.1000 
34    H14      1.5292  -40.4423   20.1061 H       1  LIG   0.0733   0.1000 
@<TRIPOS>BOND
1     2     1     ar
2     3     2     1
3     4     2     ar
4     5     4     1
5     6     4     ar
6     7     6     ar
7     8     7     1
8     9     8     1
9     10    8     1
10    11    10    1
11    12    11    ar
12    13    12    1
13    14    12    ar
14    15    14    1
15    16    14    ar
16    17    16    1
17    18    16    ar
18    19    11    ar
19    19    18    ar
20    20    19    1
21    21    1     ar
22    21    7     ar
23    21    20    1
24    22    6     1
25    23    22    1
26    24    22    1
27    25    22    1
28    26    10    2
29    27    20    1
30    28    27    1
31    29    27    1
32    30    29    1
33    31    29    1
34    32    27    1
35    32    29    1
36    33    32    1
37    34    32    1
@<TRIPOS>SUBSTRUCTURE
1   LIG    1    
 
########## Name        : 1VRT.lig
########## Description : AM1BCC_CHARGES =  -0.0002 ORIGINAL_CHARGES =  -0.0000

@<TRIPOS>MOLECULE
1VRT.lig
34    37    1     0     0    
SMALL
USER_CHARGES
@<TRIPOS>ATOM
1     N1       4.0540  -36.9310   22.2210 N.ar    1  LIG  -0.6650  -0.6200 
2     C1       4.9660  -36.2380   22.9390 C.ar    1  LIG   0.3947   0.1600 
3     H1       6.0082  -36.2811   22.6707 H       1  LIG   0.0281   0.1500 
4     C2       4.6240  -35.4500   24.0360 C.ar    1  LIG  -0.2334  -0.1500 
5     H2       5.3884  -34.9151   24.5740 H       1  LIG   0.1480   0.1500 
6     C3       3.3050  -35.3690   24.4150 C.ar    1  LIG  -0.0698  -0.1435 
7     C4       2.3460  -36.0770   23.6860 C.ar    1  LIG  -0.0398   0.1170 
8     N2       0.9890  -36.0280   24.1030 N.am    1  LIG  -0.4596  -0.5470 
9     H3       0.7643  -35.9928   25.0860 H       1  LIG   0.3311   0.3700 
10    C5      -0.1450  -36.0180   23.4080 C.2     1  LIG   0.7361   0.5438 
11    C6      -0.1190  -36.0770   21.8860 C.ar    1  LIG  -0.2550   0.0862 
12    C7      -1.1230  -35.3990   21.1890 C.ar    1  LIG  -0.0321  -0.1500 
13    H4      -1.7552  -34.6955   21.7041 H       1  LIG   0.1623   0.1500 
14    C8      -1.2960  -35.6300   19.8690 C.ar    1  LIG  -0.2723  -0.1500 
15    H5      -2.0662  -35.1073   19.3273 H       1  LIG   0.1522   0.1500 
16    C9      -0.4670  -36.5450   19.2400 C.ar    1  LIG   0.4373   0.1600 
17    H6      -0.5947  -36.7554   18.1915 H       1  LIG   0.0280   0.1500 
18    N3       0.5220  -37.2120   19.8740 N.ar    1  LIG  -0.6893  -0.6200 
19    C10      0.7040  -36.9790   21.1800 C.ar    1  LIG   0.6480   0.4100 
20    N4       1.7670  -37.6730   21.8260 N.pl3   1  LIG  -0.6924  -0.3690 
21    C11      2.7540  -36.8570   22.5840 C.ar    1  LIG   0.5805   0.4100 
22    C12      2.9040  -34.5090   25.6010 C.3     1  LIG  -0.0620   0.1435 
23    H7       2.2235  -33.7630   25.2820 H       1  LIG   0.0570   0.0000 
24    H8       2.4436  -35.1154   26.3371 H       1  LIG   0.0495   0.0000 
25    H9       3.7654  -34.0491   26.0108 H       1  LIG   0.0519   0.0000 
26    O1      -1.2400  -35.9060   23.9770 O.2     1  LIG  -0.6361  -0.5700 
27    C13      2.3440  -38.7570   21.0360 C.3     1  LIG   0.1354   0.0690 
28    H10      3.1238  -38.3754   20.4296 H       1  LIG   0.0981   0.1000 
29    C14      2.9380  -39.8900   21.8010 C.3     1  LIG  -0.1181  -0.2000 
30    H11      3.8890  -40.1268   21.3997 H       1  LIG   0.0732   0.1000 
31    H12      3.0430  -39.6129   22.8177 H       1  LIG   0.0789   0.1000 
32    C15      1.6390  -40.0610   21.0880 C.3     1  LIG  -0.1196  -0.2000 
33    H13      0.6832  -39.9283   21.5242 H       1  LIG   0.0807   0.1000 
34    H14      1.5292  -40.4423   20.1061 H       1  LIG   0.0733   0.1000 
@<TRIPOS>BOND
1     2     1     ar
2     3     2     1
3     4     2     ar
4     5     4     1
5     6     4     ar
6     7     6     ar
7     8     7     1
8     9     8     1
9     10    8     1
10    11    10    1
11    12    11    ar
12    13    12    1
13    14    12    ar
14    15    14    1
15    16    14    ar
16    17    16    1
17    18    16    ar
18    19    11    ar
19    19    18    ar
20    20    19    1
21    21    1     ar
22    21    7     ar
23    21    20    1
24    22    6     1
25    23    22    1
26    24    22    1
27    25    22    1
28    26    10    2
29    27    20    1
30    28    27    1
31    29    27    1
32    30    29    1
33    31    29    1
34    32    27    1
35    32    29    1
36    33    32    1
37    34    32    1
@<TRIPOS>SUBSTRUCTURE
1   LIG    1    
 
########## Name        : 1VRT.lig
########## Description : AM1BCC_CHARGES =  -0.0002 ORIGINAL_CHARGES =  -0.0000

@<TRIPOS>MOLECULE
1VRT.lig
34    37    1     0     0    
SMALL
USER_CHARGES
@<TRIPOS>ATOM
1     N1       4.0540  -36.9310   22.2210 N.ar    1  LIG  -0.6650  -0.6200 
2     C1       4.9660  -36.2380   22.9390 C.ar    1  LIG   0.3947   0.1600 
3     H1       6.0082  -36.2811   22.6707 H       1  LIG   0.0281   0.1500 
4     C2       4.6240  -35.4500   24.0360 C.ar    1  LIG  -0.2334  -0.1500 
5     H2       5.3884  -34.9151   24.5740 H       1  LIG   0.1480   0.1500 
6     C3       3.3050  -35.3690   24.4150 C.ar    1  LIG  -0.0698  -0.1435 
7     C4       2.3460  -36.0770   23.6860 C.ar    1  LIG  -0.0398   0.1170 
8     N2       0.9890  -36.0280   24.1030 N.am    1  LIG  -0.4596  -0.5470 
9     H3       0.7643  -35.9928   25.0860 H       1  LIG   0.3311   0.3700 
10    C5      -0.1450  -36.0180   23.4080 C.2     1  LIG   0.7361   0.5438 
11    C6      -0.1190  -36.0770   21.8860 C.ar    1  LIG  -0.2550   0.0862 
12    C7      -1.1230  -35.3990   21.1890 C.ar    1  LIG  -0.0321  -0.1500 
13    H4      -1.7552  -34.6955   21.7041 H       1  LIG   0.1623   0.1500 
14    C8      -1.2960  -35.6300   19.8690 C.ar    1  LIG  -0.2723  -0.1500 
15    H5      -2.0662  -35.1073   19.3273 H       1  LIG   0.1522   0.1500 
16    C9      -0.4670  -36.5450   19.2400 C.ar    1  LIG   0.4373   0.1600 
17    H6      -0.5947  -36.7554   18.1915 H       1  LIG   0.0280   0.1500 
18    N3       0.5220  -37.2120   19.8740 N.ar    1  LIG  -0.6893  -0.6200 
19    C10      0.7040  -36.9790   21.1800 C.ar    1  LIG   0.6480   0.4100 
20    N4       1.7670  -37.6730   21.8260 N.pl3   1  LIG  -0.6924  -0.3690 
21    C11      2.7540  -36.8570   22.5840 C.ar    1  LIG   0.5805   0.4100 
22    C12      2.9040  -34.5090   25.6010 C.3     1  LIG  -0.0620   0.1435 
23    H7       2.2235  -33.7630   25.2820 H       1  LIG   0.0570   0.0000 
24    H8       2.4436  -35.1154   26.3371 H       1  LIG   0.0495   0.0000 
25    H9       3.7654  -34.0491   26.0108 H       1  LIG   0.0519   0.0000 
26    O1      -1.2400  -35.9060   23.9770 O.2     1  LIG  -0.6361  -0.5700 
27    C13      2.3440  -38.7570   21.0360 C.3     1  LIG   0.1354   0.0690 
28    H10      3.1238  -38.3754   20.4296 H       1  LIG   0.0981   0.1000 
29    C14      2.9380  -39.8900   21.8010 C.3     1  LIG  -0.1181  -0.2000 
30    H11      3.8890  -40.1268   21.3997 H       1  LIG   0.0732   0.1000 
31    H12      3.0430  -39.6129   22.8177 H       1  LIG   0.0789   0.1000 
32    C15      1.6390  -40.0610   21.0880 C.3     1  LIG  -0.1196  -0.2000 
33    H13      0.6832  -39.9283   21.5242 H       1  LIG   0.0807   0.1000 
34    H14      1.5292  -40.4423   20.1061 H       1  LIG   0.0733   0.1000 
@<TRIPOS>BOND
1     2     1     ar
2     3     2     1
3     4     2     ar
4     5     4     1
5     6     4     ar
6     7     6     ar
7     8     7     1
8     9     8     1
9     10    8     1
10    11    10    1
11    12    11    ar
12    13    12    1
13    14    12    ar
14    15    14    1
15    16    14    ar
16    17    16    1
17    18    16    ar
18    19    11    ar
19    19    18    ar
20    20    19    1
21    21    1     ar
22    21    7     ar
23    21    20    1
24    22    6     1
25    23    22    1
26    24    22    1
27    25    22    1
28    26    10    2
29    27    20    1
30    28    27    1
31    29    27    1
32    30    29    1
33    31    29    1
34    32    27    1
35    32    29    1
36    33    32    1
37    34    32    1
@<TRIPOS>SUBSTRUCTURE
1   LIG    1    
 
########## Name        : 1VRT.lig
########## Description : AM1BCC_CHARGES =  -0.0002 ORIGINAL_CHARGES =  -0.0000

@<TRIPOS>MOLECULE
1VRT.lig
34    37    1     0     0    
SMALL
USER_CHARGES
@<TRIPOS>ATOM
1     N1       4.0540  -36.9310   22.2210 N.ar    1  LIG  -0.6650  -0.6200 
2     C1       4.9660  -36.2380   22.9390 C.ar    1  LIG   0.3947   0.1600 
3     H1       6.0082  -36.2811   22.6707 H       1  LIG   0.0281   0.1500 
4     C2       4.6240  -35.4500   24.0360 C.ar    1  LIG  -0.2334  -0.1500 
5     H2       5.3884  -34.9151   24.5740 H       1  LIG   0.1480   0.1500 
6     C3       3.3050  -35.3690   24.4150 C.ar    1  LIG  -0.0698  -0.1435 
7     C4       2.3460  -36.0770   23.6860 C.ar    1  LIG  -0.0398   0.1170 
8     N2       0.9890  -36.0280   24.1030 N.am    1  LIG  -0.4596  -0.5470 
9     H3       0.7643  -35.9928   25.0860 H       1  LIG   0.3311   0.3700 
10    C5      -0.1450  -36.0180   23.4080 C.2     1  LIG   0.7361   0.5438 
11    C6      -0.1190  -36.0770   21.8860 C.ar    1  LIG  -0.2550   0.0862 
12    C7      -1.1230  -35.3990   21.1890 C.ar    1  LIG  -0.0321  -0.1500 
13    H4      -1.7552  -34.6955   21.7041 H       1  LIG   0.1623   0.1500 
14    C8      -1.2960  -35.6300   19.8690 C.ar    1  LIG  -0.2723  -0.1500 
15    H5      -2.0662  -35.1073   19.3273 H       1  LIG   0.1522   0.1500 
16    C9      -0.4670  -36.5450   19.2400 C.ar    1  LIG   0.4373   0.1600 
17    H6      -0.5947  -36.7554   18.1915 H       1  LIG   0.0280   0.1500 
18    N3       0.5220  -37.2120   19.8740 N.ar    1  LIG  -0.6893  -0.6200 
19    C10      0.7040  -36.9790   21.1800 C.ar    1  LIG   0.6480   0.4100 
20    N4       1.7670  -37.6730   21.8260 N.pl3   1  LIG  -0.6924  -0.3690 
21    C11      2.7540  -36.8570   22.5840 C.ar    1  LIG   0.5805   0.4100 
22    C12      2.9040  -34.5090   25.6010 C.3     1  LIG  -0.0620   0.1435 
23    H7       2.2235  -33.7630   25.2820 H       1  LIG   0.0570   0.0000 
24    H8       2.4436  -35.1154   26.3371 H       1  LIG   0.0495   0.0000 
25    H9       3.7654  -34.0491   26.0108 H       1  LIG   0.0519   0.0000 
26    O1      -1.2400  -35.9060   23.9770 O.2     1  LIG  -0.6361  -0.5700 
27    C13      2.3440  -38.7570   21.0360 C.3     1  LIG   0.1354   0.0690 
28    H10      3.1238  -38.3754   20.4296 H       1  LIG   0.0981   0.1000 
29    C14      2.9380  -39.8900   21.8010 C.3     1  LIG  -0.1181  -0.2000 
30    H11      3.8890  -40.1268   21.3997 H       1  LIG   0.0732   0.1000 
31    H12      3.0430  -39.6129   22.8177 H       1  LIG   0.0789   0.1000 
32    C15      1.6390  -40.0610   21.0880 C.3     1  LIG  -0.1196  -0.2000 
33    H13      0.6832  -39.9283   21.5242 H       1  LIG   0.0807   0.1000 
34    H14      1.5292  -40.4423   20.1061 H       1  LIG   0.0733   0.1000 
@<TRIPOS>BOND
1     2     1     ar
2     3     2     1
3     4     2     ar
4     5     4     1
5     6     4     ar
6     7     6     ar
7     8     7     1
8     9     8     1
9     10    8     1
10    11    10    1
11    12    11    ar
12    13    12    1
13    14    12    ar
14    15    14    1
15    16    14    ar
16    17    16    1
17    18    16    ar
18    19    11    ar
19    19    18    ar
20    20    19    1
21    21    1     ar
22    21    7     ar
23    21    20    1
24    22    6     1
25    23    22    1
26    24    22    1
27    25    22    1
28    26    10    2
29    27    20    1
30    28    27    1
31    29    27    1
32    30    29    1
33    31    29    1
34    32    27    1
35    32    29    1
36    33    32    1
37    34    32    1
@<TRIPOS>SUBSTRUCTURE
1   LIG    1    
 
########## Name        : 1VRT.lig
########## Description : AM1BCC_CHARGES =  -0.0002 ORIGINAL_CHARGES =  -0.0000

@<TRIPOS>MOLECULE
1VRT.lig
34    37    1     0     0    
SMALL
USER_CHARGES
@<TRIPOS>ATOM
1     N1       4.0540  -36.9310   22.2210 N.ar    1  LIG  -0.6650  -0.6200 
2     C1       4.9660  -36.2380   22.9390 C.ar    1  LIG   0.3947   0.1600 
3     H1       6.0082  -36.2811   22.6707 H       1  LIG   0.0281   0.1500 
4     C2       4.6240  -35.4500   24.0360 C.ar    1  LIG  -0.2334  -0.1500 
5     H2       5.3884  -34.9151   24.5740 H       1  LIG   0.1480   0.1500 
6     C3       3.3050  -35.3690   24.4150 C.ar    1  LIG  -0.0698  -0.1435 
7     C4       2.3460  -36.0770   23.6860 C.ar    1  LIG  -0.0398   0.1170 
8     N2       0.9890  -36.0280   24.1030 N.am    1  LIG  -0.4596  -0.5470 
9     H3       0.7643  -35.9928   25.0860 H       1  LIG   0.3311   0.3700 
10    C5      -0.1450  -36.0180   23.4080 C.2     1  LIG   0.7361   0.5438 
11    C6      -0.1190  -36.0770   21.8860 C.ar    1  LIG  -0.2550   0.0862 
12    C7      -1.1230  -35.3990   21.1890 C.ar    1  LIG  -0.0321  -0.1500 
13    H4      -1.7552  -34.6955   21.7041 H       1  LIG   0.1623   0.1500 
14    C8      -1.2960  -35.6300   19.8690 C.ar    1  LIG  -0.2723  -0.1500 
15    H5      -2.0662  -35.1073   19.3273 H       1  LIG   0.1522   0.1500 
16    C9      -0.4670  -36.5450   19.2400 C.ar    1  LIG   0.4373   0.1600 
17    H6      -0.5947  -36.7554   18.1915 H       1  LIG   0.0280   0.1500 
18    N3       0.5220  -37.2120   19.8740 N.ar    1  LIG  -0.6893  -0.6200 
19    C10      0.7040  -36.9790   21.1800 C.ar    1  LIG   0.6480   0.4100 
20    N4       1.7670  -37.6730   21.8260 N.pl3   1  LIG  -0.6924  -0.3690 
21    C11      2.7540  -36.8570   22.5840 C.ar    1  LIG   0.5805   0.4100 
22    C12      2.9040  -34.5090   25.6010 C.3     1  LIG  -0.0620   0.1435 
23    H7       2.2235  -33.7630   25.2820 H       1  LIG   0.0570   0.0000 
24    H8       2.4436  -35.1154   26.3371 H       1  LIG   0.0495   0.0000 
25    H9       3.7654  -34.0491   26.0108 H       1  LIG   0.0519   0.0000 
26    O1      -1.2400  -35.9060   23.9770 O.2     1  LIG  -0.6361  -0.5700 
27    C13      2.3440  -38.7570   21.0360 C.3     1  LIG   0.1354   0.0690 
28    H10      3.1238  -38.3754   20.4296 H       1  LIG   0.0981   0.1000 
29    C14      2.9380  -39.8900   21.8010 C.3     1  LIG  -0.1181  -0.2000 
30    H11      3.8890  -40.1268   21.3997 H       1  LIG   0.0732   0.1000 
31    H12      3.0430  -39.6129   22.8177 H       1  LIG   0.0789   0.1000 
32    C15      1.6390  -40.0610   21.0880 C.3     1  LIG  -0.1196  -0.2000 
33    H13      0.6832  -39.9283   21.5242 H       1  LIG   0.0807   0.1000 
34    H14      1.5292  -40.4423   20.1061 H       1  LIG   0.0733   0.1000 
@<TRIPOS>BOND
1     2     1     ar
2     3     2     1
3     4     2     ar
4     5     4     1
5     6     4     ar
6     7     6     ar
7     8     7     1
8     9     8     1
9     10    8     1
10    11    10    1
11    12    11    ar
12    13    12    1
13    14    12    ar
14    15    14    1
15    16    14    ar
16    17    16    1
17    18    16    ar
18    19    11    ar
19    19    18    ar
20    20    19    1
21    21    1     ar
22    21    7     ar
23    21    20    1
24    22    6     1
25    23    22    1
26    24    22    1
27    25    22    1
28    26    10    2
29    27    20    1
30    28    27    1
31    29    27    1
32    30    29    1
33    31    29    1
34    32    27    1
35    32    29    1
36    33    32    1
37    34    32    1
@<TRIPOS>SUBSTRUCTURE
1   LIG    1    
 
########## Name        : 1VRT.lig
########## Description : AM1BCC_CHARGES =  -0.0002 ORIGINAL_CHARGES =  -0.0000

@<TRIPOS>MOLECULE
1VRT.lig
34    37    1     0     0    
SMALL
USER_CHARGES
@<TRIPOS>ATOM
1     N1       4.0540  -36.9310   22.2210 N.ar    1  LIG  -0.6650  -0.6200 
2     C1       4.9660  -36.2380   22.9390 C.ar    1  LIG   0.3947   0.1600 
3     H1       6.0082  -36.2811   22.6707 H       1  LIG   0.0281   0.1500 
4     C2       4.6240  -35.4500   24.0360 C.ar    1  LIG  -0.2334  -0.1500 
5     H2       5.3884  -34.9151   24.5740 H       1  LIG   0.1480   0.1500 
6     C3       3.3050  -35.3690   24.4150 C.ar    1  LIG  -0.0698  -0.1435 
7     C4       2.3460  -36.0770   23.6860 C.ar    1  LIG  -0.0398   0.1170 
8     N2       0.9890  -36.0280   24.1030 N.am    1  LIG  -0.4596  -0.5470 
9     H3       0.7643  -35.9928   25.0860 H       1  LIG   0.3311   0.3700 
10    C5      -0.1450  -36.0180   23.4080 C.2     1  LIG   0.7361   0.5438 
11    C6      -0.1190  -36.0770   21.8860 C.ar    1  LIG  -0.2550   0.0862 
12    C7      -1.1230  -35.3990   21.1890 C.ar    1  LIG  -0.0321  -0.1500 
13    H4      -1.7552  -34.6955   21.7041 H       1  LIG   0.1623   0.1500 
14    C8      -1.2960  -35.6300   19.8690 C.ar    1  LIG  -0.2723  -0.1500 
15    H5      -2.0662  -35.1073   19.3273 H       1  LIG   0.1522   0.1500 
16    C9      -0.4670  -36.5450   19.2400 C.ar    1  LIG   0.4373   0.1600 
17    H6      -0.5947  -36.7554   18.1915 H       1  LIG   0.0280   0.1500 
18    N3       0.5220  -37.2120   19.8740 N.ar    1  LIG  -0.6893  -0.6200 
19    C10      0.7040  -36.9790   21.1800 C.ar    1  LIG   0.6480   0.4100 
20    N4       1.7670  -37.6730   21.8260 N.pl3   1  LIG  -0.6924  -0.3690 
21    C11      2.7540  -36.8570   22.5840 C.ar    1  LIG   0.5805   0.4100 
22    C12      2.9040  -34.5090   25.6010 C.3     1  LIG  -0.0620   0.1435 
23    H7       2.2235  -33.7630   25.2820 H       1  LIG   0.0570   0.0000 
24    H8       2.4436  -35.1154   26.3371 H       1  LIG   0.0495   0.0000 
25    H9       3.7654  -34.0491   26.0108 H       1  LIG   0.0519   0.0000 
26    O1      -1.2400  -35.9060   23.9770 O.2     1  LIG  -0.6361  -0.5700 
27    C13      2.3440  -38.7570   21.0360 C.3     1  LIG   0.1354   0.0690 
28    H10      3.1238  -38.3754   20.4296 H       1  LIG   0.0981   0.1000 
29    C14      2.9380  -39.8900   21.8010 C.3     1  LIG  -0.1181  -0.2000 
30    H11      3.8890  -40.1268   21.3997 H       1  LIG   0.0732   0.1000 
31    H12      3.0430  -39.6129   22.8177 H       1  LIG   0.0789   0.1000 
32    C15      1.6390  -40.0610   21.0880 C.3     1  LIG  -0.1196  -0.2000 
33    H13      0.6832  -39.9283   21.5242 H       1  LIG   0.0807   0.1000 
34    H14      1.5292  -40.4423   20.1061 H       1  LIG   0.0733   0.1000 
@<TRIPOS>BOND
1     2     1     ar
2     3     2     1
3     4     2     ar
4     5     4     1
5     6     4     ar
6     7     6     ar
7     8     7     1
8     9     8     1
9     10    8     1
10    11    10    1
11    12    11    ar
12    13    12    1
13    14    12    ar
14    15    14    1
15    16    14    ar
16    17    16    1
17    18    16    ar
18    19    11    ar
19    19    18    ar
20    20    19    1
21    21    1     ar
22    21    7     ar
23    21    20    1
24    22    6     1
25    23    22    1
26    24    22    1
27    25    22    1
28    26    10    2
29    27    20    1
30    28    27    1
31    29    27    1
32    30    29    1
33    31    29    1
34    32    27    1
35    32    29    1
36    33    32    1
37    34    32    1
@<TRIPOS>SUBSTRUCTURE
1   LIG    1    
 
########## Name        : 1VRT.lig
########## Description : AM1BCC_CHARGES =  -0.0002 ORIGINAL_CHARGES =  -0.0000

@<TRIPOS>MOLECULE
1VRT.lig
34    37    1     0     0    
SMALL
USER_CHARGES
@<TRIPOS>ATOM
1     N1       4.0540  -36.9310   22.2210 N.ar    1  LIG  -0.6650  -0.6200 
2     C1       4.9660  -36.2380   22.9390 C.ar    1  LIG   0.3947   0.1600 
3     H1       6.0082  -36.2811   22.6707 H       1  LIG   0.0281   0.1500 
4     C2       4.6240  -35.4500   24.0360 C.ar    1  LIG  -0.2334  -0.1500 
5     H2       5.3884  -34.9151   24.5740 H       1  LIG   0.1480   0.1500 
6     C3       3.3050  -35.3690   24.4150 C.ar    1  LIG  -0.0698  -0.1435 
7     C4       2.3460  -36.0770   23.6860 C.ar    1  LIG  -0.0398   0.1170 
8     N2       0.9890  -36.0280   24.1030 N.am    1  LIG  -0.4596  -0.5470 
9     H3       0.7643  -35.9928   25.0860 H       1  LIG   0.3311   0.3700 
10    C5      -0.1450  -36.0180   23.4080 C.2     1  LIG   0.7361   0.5438 
11    C6      -0.1190  -36.0770   21.8860 C.ar    1  LIG  -0.2550   0.0862 
12    C7      -1.1230  -35.3990   21.1890 C.ar    1  LIG  -0.0321  -0.1500 
13    H4      -1.7552  -34.6955   21.7041 H       1  LIG   0.1623   0.1500 
14    C8      -1.2960  -35.6300   19.8690 C.ar    1  LIG  -0.2723  -0.1500 
15    H5      -2.0662  -35.1073   19.3273 H       1  LIG   0.1522   0.1500 
16    C9      -0.4670  -36.5450   19.2400 C.ar    1  LIG   0.4373   0.1600 
17    H6      -0.5947  -36.7554   18.1915 H       1  LIG   0.0280   0.1500 
18    N3       0.5220  -37.2120   19.8740 N.ar    1  LIG  -0.6893  -0.6200 
19    C10      0.7040  -36.9790   21.1800 C.ar    1  LIG   0.6480   0.4100 
20    N4       1.7670  -37.6730   21.8260 N.pl3   1  LIG  -0.6924  -0.3690 
21    C11      2.7540  -36.8570   22.5840 C.ar    1  LIG   0.5805   0.4100 
22    C12      2.9040  -34.5090   25.6010 C.3     1  LIG  -0.0620   0.1435 
23    H7       2.2235  -33.7630   25.2820 H       1  LIG   0.0570   0.0000 
24    H8       2.4436  -35.1154   26.3371 H       1  LIG   0.0495   0.0000 
25    H9       3.7654  -34.0491   26.0108 H       1  LIG   0.0519   0.0000 
26    O1      -1.2400  -35.9060   23.9770 O.2     1  LIG  -0.6361  -0.5700 
27    C13      2.3440  -38.7570   21.0360 C.3     1  LIG   0.1354   0.0690 
28    H10      3.1238  -38.3754   20.4296 H       1  LIG   0.0981   0.1000 
29    C14      2.9380  -39.8900   21.8010 C.3     1  LIG  -0.1181  -0.2000 
30    H11      3.8890  -40.1268   21.3997 H       1  LIG   0.0732   0.1000 
31    H12      3.0430  -39.6129   22.8177 H       1  LIG   0.0789   0.1000 
32    C15      1.6390  -40.0610   21.0880 C.3     1  LIG  -0.1196  -0.2000 
33    H13      0.6832  -39.9283   21.5242 H       1  LIG   0.0807   0.1000 
34    H14      1.5292  -40.4423   20.1061 H       1  LIG   0.0733   0.1000 
@<TRIPOS>BOND
1     2     1     ar
2     3     2     1
3     4     2     ar
4     5     4     1
5     6     4     ar
6     7     6     ar
7     8     7     1
8     9     8     1
9     10    8     1
10    11    10    1
11    12    11    ar
12    13    12    1
13    14    12    ar
14    15    14    1
15    16    14    ar
16    17    16    1
17    18    16    ar
18    19    11    ar
19    19    18    ar
20    20    19    1
21    21    1     ar
22    21    7     ar
23    21    20    1
24    22    6     1
25    23    22    1
26    24    22    1
27    25    22    1
28    26    10    2
29    27    20    1
30    28    27    1
31    29    27    1
32    30    29    1
33    31    29    1
34    32    27    1
35    32    29    1
36    33    32    1
37    34    32    1
@<TRIPOS>SUBSTRUCTURE
1   LIG    1    
 
########## Name        : 1VRT.lig
########## Description : AM1BCC_CHARGES =  -0.0002 ORIGINAL_CHARGES =  -0.0000

@<TRIPOS>MOLECULE
1VRT.lig
34    37    1     0     0    
SMALL
USER_CHARGES
@<TRIPOS>ATOM
1     N1       4.0540  -36.9310   22.2210 N.ar    1  LIG  -0.6650  -0.6200 
2     C1       4.9660  -36.2380   22.9390 C.ar    1  LIG   0.3947   0.1600 
3     H1       6.0082  -36.2811   22.6707 H       1  LIG   0.0281   0.1500 
4     C2       4.6240  -35.4500   24.0360 C.ar    1  LIG  -0.2334  -0.1500 
5     H2       5.3884  -34.9151   24.5740 H       1  LIG   0.1480   0.1500 
6     C3       3.3050  -35.3690   24.4150 C.ar    1  LIG  -0.0698  -0.1435 
7     C4       2.3460  -36.0770   23.6860 C.ar    1  LIG  -0.0398   0.1170 
8     N2       0.9890  -36.0280   24.1030 N.am    1  LIG  -0.4596  -0.5470 
9     H3       0.7643  -35.9928   25.0860 H       1  LIG   0.3311   0.3700 
10    C5      -0.1450  -36.0180   23.4080 C.2     1  LIG   0.7361   0.5438 
11    C6      -0.1190  -36.0770   21.8860 C.ar    1  LIG  -0.2550   0.0862 
12    C7      -1.1230  -35.3990   21.1890 C.ar    1  LIG  -0.0321  -0.1500 
13    H4      -1.7552  -34.6955   21.7041 H       1  LIG   0.1623   0.1500 
14    C8      -1.2960  -35.6300   19.8690 C.ar    1  LIG  -0.2723  -0.1500 
15    H5      -2.0662  -35.1073   19.3273 H       1  LIG   0.1522   0.1500 
16    C9      -0.4670  -36.5450   19.2400 C.ar    1  LIG   0.4373   0.1600 
17    H6      -0.5947  -36.7554   18.1915 H       1  LIG   0.0280   0.1500 
18    N3       0.5220  -37.2120   19.8740 N.ar    1  LIG  -0.6893  -0.6200 
19    C10      0.7040  -36.9790   21.1800 C.ar    1  LIG   0.6480   0.4100 
20    N4       1.7670  -37.6730   21.8260 N.pl3   1  LIG  -0.6924  -0.3690 
21    C11      2.7540  -36.8570   22.5840 C.ar    1  LIG   0.5805   0.4100 
22    C12      2.9040  -34.5090   25.6010 C.3     1  LIG  -0.0620   0.1435 
23    H7       2.2235  -33.7630   25.2820 H       1  LIG   0.0570   0.0000 
24    H8       2.4436  -35.1154   26.3371 H       1  LIG   0.0495   0.0000 
25    H9       3.7654  -34.0491   26.0108 H       1  LIG   0.0519   0.0000 
26    O1      -1.2400  -35.9060   23.9770 O.2     1  LIG  -0.6361  -0.5700 
27    C13      2.3440  -38.7570   21.0360 C.3     1  LIG   0.1354   0.0690 
28    H10      3.1238  -38.3754   20.4296 H       1  LIG   0.0981   0.1000 
29    C14      2.9380  -39.8900   21.8010 C.3     1  LIG  -0.1181  -0.2000 
30    H11      3.8890  -40.1268   21.3997 H       1  LIG   0.0732   0.1000 
31    H12      3.0430  -39.6129   22.8177 H       1  LIG   0.0789   0.1000 
32    C15      1.6390  -40.0610   21.0880 C.3     1  LIG  -0.1196  -0.2000 
33    H13      0.6832  -39.9283   21.5242 H       1  LIG   0.0807   0.1000 
34    H14      1.5292  -40.4423   20.1061 H       1  LIG   0.0733   0.1000 
@<TRIPOS>BOND
1     2     1     ar
2     3     2     1
3     4     2     ar
4     5     4     1
5     6     4     ar
6     7     6     ar
7     8     7     1
8     9     8     1
9     10    8     1
10    11    10    1
11    12    11    ar
12    13    12    1
13    14    12    ar
14    15    14    1
15    16    14    ar
16    17    16    1
17    18    16    ar
18    19    11    ar
19    19    18    ar
20    20    19    1
21    21    1     ar
22    21    7     ar
23    21    20    1
24    22    6     1
25    23    22    1
26    24    22    1
27    25    22    1
28    26    10    2
29    27    20    1
30    28    27    1
31    29    27    1
32    30    29    1
33    31    29    1
34    32    27    1
35    32    29    1
36    33    32    1
37    34    32    1
@<TRIPOS>SUBSTRUCTURE
1   LIG    1    
 
