########## Number      : 1
########## Name        : ZINC00000024
########## Description : AM1BCC_CHARGES =   1.0003 ORIGINAL_CHARGES =   1.0000

@<TRIPOS>MOLECULE
ZINC00000024
39    43    1     0     0    
SMALL
USER_CHARGES
****
****
@<TRIPOS>ATOM
1     C1       4.2984    4.1460   -1.1036 C.ar    1  LIG  -0.1023  -0.1500 
2     C2       4.0141    4.7019    0.1559 C.ar    1  LIG  -0.1541  -0.1435 
3     C3       2.6663    4.9542    0.5520 C.ar    1  LIG  -0.0776  -0.1435 
4     C4       1.6239    4.6075   -0.3289 C.ar    1  LIG  -0.0856  -0.1500 
5     C5       1.9434    4.0732   -1.5609 C.ar    1  LIG   0.0899   0.0825 
6     C6       3.2435    3.8525   -1.9390 C.ar    1  LIG   0.0839   0.0825 
7     O1       3.3378    3.3117   -3.1837 O.3     1  LIG  -0.3166  -0.3625 
8     C7       1.9455    3.2209   -3.5490 C.3     1  LIG   0.3192   0.5600 
9     O2       1.0541    3.6956   -2.5195 O.3     1  LIG  -0.3127  -0.3625 
10    C8       2.3289    5.5214    1.9469 C.3     1  LIG  -0.0267   0.1435 
11    C9       1.6784    6.9331    1.8766 C.3     1  LIG   0.1633   0.2800 
12    C10      1.3577    7.4657    3.3004 C.3     1  LIG   0.1164   0.4182 
13    C11      2.5465    7.3989    4.2190 C.2     1  LIG  -0.0898  -0.2882 
14    C12      3.5480    6.5490    3.9770 C.2     1  LIG  -0.1980  -0.2764 
15    C13      3.5763    5.5734    2.8521 C.3     1  LIG   0.1780   0.6412 
16    C14      5.1583    4.9571    1.1017 C.3     1  LIG   0.1818   0.6465 
17    C15      5.8090    6.2590    3.2247 C.3     1  LIG   0.1212   0.5030 
18    C16      4.9663    6.6685    4.4598 C.3     1  LIG  -0.0521   0.1382 
19    O3       0.9571    8.8200    3.1671 O.3     1  LIG  -0.5879  -0.6800 
20    O4       0.4459    6.8599    1.1739 O.3     1  LIG  -0.5909  -0.6800 
21    H1       0.6464    9.1240    4.0373 H       1  LIG   0.4292   0.4000 
22    H2       0.0603    7.7539    1.1784 H       1  LIG   0.4443   0.4000 
23    H3       5.3188    3.9417   -1.4122 H       1  LIG   0.1680   0.1500 
24    H4       0.5822    4.7351   -0.0541 H       1  LIG   0.1973   0.1500 
25    H5       1.7810    3.8130   -4.4567 H       1  LIG   0.0957   0.0000 
26    H6       1.7068    2.1730   -3.7641 H       1  LIG   0.0945   0.0000 
27    H7       1.6095    4.7910    2.3626 H       1  LIG   0.1144   0.0000 
28    H8       2.3711    7.6139    1.3537 H       1  LIG   0.0562   0.0000 
29    H9       0.5492    6.8678    3.7502 H       1  LIG   0.0827   0.0000 
30    H10      2.6442    8.1483    4.9992 H       1  LIG   0.1694   0.1500 
31    H11      3.6726    4.5623    3.2887 H       1  LIG   0.1136   0.0000 
32    H12      5.4384    4.0310    1.6168 H       1  LIG   0.1054   0.0000 
33    H13      6.0261    5.3624    0.5702 H       1  LIG   0.1052   0.0000 
34    H14      6.3799    5.3442    3.4149 H       1  LIG   0.1047   0.0000 
35    H15      6.4633    7.0580    2.8646 H       1  LIG   0.1065   0.0000 
36    H16      5.2158    7.6853    4.7791 H       1  LIG   0.0961   0.0000 
37    H17      5.1559    5.9826    5.2918 H       1  LIG   0.1004   0.0000 
38    N1       4.7862    5.9669    2.1294 N.4     1  LIG  -0.6960  -0.9590 
39    H18      4.6719    6.8594    1.6190 H       1  LIG   0.4533   0.4500 
@<TRIPOS>BOND
1     1     6     ar
2     1     2     ar
3     1     23    1
4     2     16    1
5     2     3     ar
6     3     4     ar
7     3     10    1
8     4     5     ar
9     4     24    1
10    5     9     1
11    5     6     ar
12    6     7     1
13    7     8     1
14    8     9     1
15    8     25    1
16    8     26    1
17    10    15    1
18    10    11    1
19    10    27    1
20    11    12    1
21    11    20    1
22    11    28    1
23    12    13    1
24    12    19    1
25    12    29    1
26    13    14    2
27    13    30    1
28    14    18    1
29    14    15    1
30    15    31    1
31    15    38    1
32    16    32    1
33    16    33    1
34    16    38    1
35    17    18    1
36    17    34    1
37    17    35    1
38    17    38    1
39    18    36    1
40    18    37    1
41    19    21    1
42    20    22    1
43    38    39    1
@<TRIPOS>SUBSTRUCTURE
1   LIG    1    
 
########## Number      : 2
########## Name        : ZINC00000025
########## Description : AM1BCC_CHARGES =   1.0005 ORIGINAL_CHARGES =   1.0000

@<TRIPOS>MOLECULE
ZINC00000025
38    39    1     0     0    
SMALL
USER_CHARGES
****
****
@<TRIPOS>ATOM
1     C1       6.1252   -4.2843   -1.5933 C.3     1  LIG  -0.1334   0.0000 
2     C2       5.6543   -4.9322   -0.2886 C.3     1  LIG   0.1293   0.5030 
3     C3       5.6939   -6.4661   -0.4046 C.3     1  LIG  -0.0566   0.1435 
4     C4       5.4274   -7.1672    0.9076 C.ar    1  LIG  -0.1515  -0.1435 
5     C5       6.3485   -7.0808    1.9613 C.ar    1  LIG  -0.1120  -0.1500 
6     C6       6.0893   -7.7060    3.1818 C.ar    1  LIG  -0.1141  -0.1500 
7     C7       4.9104   -8.4267    3.3601 C.ar    1  LIG  -0.1030  -0.1500 
8     C8       3.9917   -8.5265    2.3172 C.ar    1  LIG  -0.1161  -0.1500 
9     C9       4.2487   -7.9019    1.0956 C.ar    1  LIG  -0.1499  -0.1500 
10    C10      4.0896   -3.1906    0.7224 C.3     1  LIG   0.2861   0.8465 
11    C11      2.6781   -2.7712    0.6466 C.1     1  LIG   0.1290   0.3571 
12    N1       1.5653   -2.4503    0.5732 N.1     1  LIG  -0.2239  -0.5571 
13    C12      4.5467   -3.3059    2.1734 C.ar    1  LIG  -0.1773  -0.1435 
14    C13      5.6090   -2.5146    2.6388 C.ar    1  LIG  -0.0925  -0.1500 
15    C14      6.0542   -2.6256    3.9575 C.ar    1  LIG  -0.1164  -0.1500 
16    C15      5.4446   -3.5260    4.8281 C.ar    1  LIG  -0.0775  -0.1500 
17    C16      4.3868   -4.3148    4.3831 C.ar    1  LIG  -0.1124  -0.1500 
18    C17      3.9385   -4.2061    3.0657 C.ar    1  LIG  -0.1045  -0.1500 
19    H1       7.1542   -4.5830   -1.8203 H       1  LIG   0.0988   0.0000 
20    H2       5.4954   -4.5818   -2.4389 H       1  LIG   0.0700   0.0000 
21    H3       6.1059   -3.1921   -1.5243 H       1  LIG   0.0616   0.0000 
22    H4       6.3282   -4.5905    0.5121 H       1  LIG   0.1152   0.0000 
23    H5       4.9803   -6.8064   -1.1666 H       1  LIG   0.0753   0.0000 
24    H6       6.6829   -6.7868   -0.7581 H       1  LIG   0.1045   0.0000 
25    H7       7.2740   -6.5231    1.8405 H       1  LIG   0.1398   0.1500 
26    H8       6.8072   -7.6300    3.9935 H       1  LIG   0.1538   0.1500 
27    H9       4.7091   -8.9131    4.3103 H       1  LIG   0.1557   0.1500 
28    H10      3.0743   -9.0919    2.4550 H       1  LIG   0.1536   0.1500 
29    H11      3.5190   -7.9910    0.2945 H       1  LIG   0.1313   0.1500 
30    H12      4.7148   -2.4234    0.2355 H       1  LIG   0.1315   0.0000 
31    H13      6.1047   -1.8073    1.9779 H       1  LIG   0.1441   0.1500 
32    H14      6.8788   -2.0093    4.3051 H       1  LIG   0.1622   0.1500 
33    H15      5.7931   -3.6118    5.8534 H       1  LIG   0.1624   0.1500 
34    H16      3.9107   -5.0171    5.0617 H       1  LIG   0.1603   0.1500 
35    H17      3.1112   -4.8351    2.7457 H       1  LIG   0.1366   0.1500 
36    N2       4.2441   -4.4977   -0.0115 N.4     1  LIG  -0.7762  -0.9060 
37    H18      3.7327   -4.4507   -0.9047 H       1  LIG   0.4483   0.4500 
38    H19      3.7550   -5.2248    0.5275 H       1  LIG   0.4684   0.4500 
@<TRIPOS>BOND
1     1     2     1
2     1     19    1
3     1     20    1
4     1     21    1
5     2     3     1
6     2     22    1
7     2     36    1
8     3     4     1
9     3     23    1
10    3     24    1
11    4     9     ar
12    4     5     ar
13    5     6     ar
14    5     25    1
15    6     7     ar
16    6     26    1
17    7     8     ar
18    7     27    1
19    8     9     ar
20    8     28    1
21    9     29    1
22    10    11    1
23    10    13    1
24    10    30    1
25    10    36    1
26    11    12    3
27    13    18    ar
28    13    14    ar
29    14    15    ar
30    14    31    1
31    15    16    ar
32    15    32    1
33    16    17    ar
34    16    33    1
35    17    18    ar
36    17    34    1
37    18    35    1
38    36    37    1
39    36    38    1
@<TRIPOS>SUBSTRUCTURE
1   LIG    1    
 
########## Number      : 3
########## Name        : ZINC00000027
########## Description : AM1BCC_CHARGES =  -0.0003 ORIGINAL_CHARGES =  -0.0000

@<TRIPOS>MOLECULE
ZINC00000027
40    40    1     0     0    
SMALL
USER_CHARGES
****
****
@<TRIPOS>ATOM
1     C1       1.3057   -5.4438   -2.2536 C.ar    1  LIG  -0.1017  -0.1500 
2     C2       0.6732   -6.3781   -3.0829 C.ar    1  LIG  -0.1712  -0.1500 
3     C3      -0.7007   -6.6588   -2.9708 C.ar    1  LIG   0.1159   0.1000 
4     C4      -1.4074   -5.9586   -1.9762 C.ar    1  LIG  -0.1418  -0.1500 
5     C5      -0.7806   -5.0245   -1.1426 C.ar    1  LIG  -0.1147  -0.1500 
6     C6       0.5841   -4.7615   -1.2722 C.ar    1  LIG  -0.0979  -0.1435 
7     C7       1.2600   -3.7424   -0.3911 C.3     1  LIG  -0.0344   0.1435 
8     C8       1.2677   -2.3531   -1.0416 C.3     1  LIG  -0.0733   0.0000 
9     C9       1.8818   -1.2772   -0.1318 C.3     1  LIG  -0.0746   0.3970 
10    C10      3.3797   -1.5718    0.0715 C.2     1  LIG   0.9349   0.9060 
11    O1       4.1090   -1.3686   -0.9404 O.co2   1  LIG  -0.8018  -0.9000 
12    N1      -1.3461   -7.5905   -3.7981 N.pl3   1  LIG  -0.6414  -0.8382 
13    C11     -2.6011   -7.1671   -4.4424 C.3     1  LIG   0.1771   0.3691 
14    C12     -2.3241   -6.2940   -5.6634 C.3     1  LIG  -0.0051   0.2900 
15    Cl1     -3.8499   -5.8081   -6.4392 Cl      1  LIG  -0.1854  -0.2900 
16    C13     -0.5466   -8.6697   -4.4033 C.3     1  LIG   0.1727   0.3691 
17    C14     -1.3693   -9.9234   -4.6858 C.3     1  LIG   0.0281   0.2900 
18    Cl2     -0.3095  -11.2587   -5.2033 Cl      1  LIG  -0.1853  -0.2900 
19    H1       2.0411    0.8049   -0.1841 H       1  LIG   0.4316   0.4500 
20    H2       2.1968    0.0960   -1.6712 H       1  LIG   0.4841   0.4500 
21    H3       2.3680   -5.2527   -2.3864 H       1  LIG   0.1444   0.1500 
22    H4       1.2820   -6.8659   -3.8406 H       1  LIG   0.1354   0.1500 
23    H5      -2.4652   -6.1489   -1.8103 H       1  LIG   0.1387   0.1500 
24    H6      -1.3708   -4.5101   -0.3881 H       1  LIG   0.1300   0.1500 
25    H7       0.7480   -3.7016    0.5786 H       1  LIG   0.0521   0.0000 
26    H8       2.2822   -4.0788   -0.1796 H       1  LIG   0.1058   0.0000 
27    H9       1.8072   -2.3985   -1.9973 H       1  LIG   0.0640   0.0000 
28    H10      0.2351   -2.0692   -1.2862 H       1  LIG   0.0217   0.0000 
29    H11      1.3500   -1.2878    0.8340 H       1  LIG   0.0907   0.0000 
30    H12     -3.1832   -8.0453   -4.7414 H       1  LIG   0.0647   0.0000 
31    H13     -3.2540   -6.6334   -3.7430 H       1  LIG   0.0705   0.0000 
32    H14     -1.7868   -5.3808   -5.3901 H       1  LIG   0.0727   0.0000 
33    H15     -1.7305   -6.8290   -6.4106 H       1  LIG   0.0675   0.0000 
34    H16     -0.0748   -8.3108   -5.3262 H       1  LIG   0.0303   0.0000 
35    H17      0.2566   -8.9596   -3.7129 H       1  LIG   0.0783   0.0000 
36    H18     -1.9118  -10.2530   -3.7944 H       1  LIG   0.0820   0.0000 
37    H19     -2.0885   -9.7630   -5.4932 H       1  LIG   0.0648   0.0000 
38    O2       3.6911   -1.9602    1.2317 O.co2   1  LIG  -0.7115  -0.9000 
39    N2       1.6821    0.0479   -0.7805 N.4     1  LIG  -0.8345  -0.8530 
40    H20      0.6911    0.2421   -0.9711 H       1  LIG   0.4163   0.4500 
@<TRIPOS>BOND
1     1     6     ar
2     1     2     ar
3     1     21    1
4     2     3     ar
5     2     22    1
6     3     4     ar
7     3     12    1
8     4     5     ar
9     4     23    1
10    5     6     ar
11    5     24    1
12    6     7     1
13    7     8     1
14    7     25    1
15    7     26    1
16    8     9     1
17    8     27    1
18    8     28    1
19    9     10    1
20    9     29    1
21    9     39    1
22    10    11    2
23    10    38    1
24    12    13    1
25    12    16    1
26    13    14    1
27    13    30    1
28    13    31    1
29    14    15    1
30    14    32    1
31    14    33    1
32    16    17    1
33    16    34    1
34    16    35    1
35    17    18    1
36    17    36    1
37    17    37    1
38    19    39    1
39    20    39    1
40    39    40    1
@<TRIPOS>SUBSTRUCTURE
1   LIG    1    
 
########## Number      : 4
########## Name        : ZINC00000032
########## Description : AM1BCC_CHARGES =   0.0001 ORIGINAL_CHARGES =   0.0000

@<TRIPOS>MOLECULE
ZINC00000032
22    23    1     0     0    
SMALL
USER_CHARGES
****
****
@<TRIPOS>ATOM
1     C1       2.6086    1.0615    3.6352 C.ar    1  LIG  -0.1234  -0.1500 
2     C2       2.6604    0.3774    2.4228 C.ar    1  LIG  -0.1307  -0.1500 
3     C3       2.8785   -1.0015    2.4058 C.ar    1  LIG  -0.1010  -0.1500 
4     C4       3.0533   -1.7128    3.6033 C.ar    1  LIG  -0.1023  -0.1435 
5     C5       2.9898   -1.0118    4.8171 C.ar    1  LIG  -0.1202  -0.1500 
6     C6       2.7717    0.3672    4.8319 C.ar    1  LIG  -0.1318  -0.1500 
7     C7       3.2712   -3.2129    3.6084 C.3     1  LIG   0.1568   0.4235 
8     C8       1.9760   -3.9848    3.4268 C.3     1  LIG   0.0916   0.2460 
9     N1       2.3148   -5.0424    2.4657 N.2     1  LIG  -0.6826  -0.6960 
10    C9       3.4859   -4.7135    2.0187 C.2     1  LIG   0.7399   0.6500 
11    O1       4.0955   -3.6075    2.5319 O.3     1  LIG  -0.4618  -0.4300 
12    N2       4.2227   -5.3475    1.0703 N.pl3   1  LIG  -0.8682  -0.8500 
13    H1       3.8771   -6.1835    0.6143 H       1  LIG   0.4222   0.4000 
14    H2       5.1339   -4.9996    0.7966 H       1  LIG   0.4175   0.4000 
15    H3       2.4383    2.1341    3.6476 H       1  LIG   0.1321   0.1500 
16    H4       2.5288    0.9167    1.4890 H       1  LIG   0.1343   0.1500 
17    H5       2.9075   -1.5169    1.4488 H       1  LIG   0.1464   0.1500 
18    H6       3.1095   -1.5355    5.7626 H       1  LIG   0.1303   0.1500 
19    H7       2.7275    0.8989    5.7782 H       1  LIG   0.1323   0.1500 
20    H8       3.7387   -3.4759    4.5706 H       1  LIG   0.0771   0.0000 
21    H9       1.6375   -4.4173    4.3743 H       1  LIG   0.0647   0.0000 
22    H10      1.1565   -3.3789    3.0239 H       1  LIG   0.0769   0.0000 
@<TRIPOS>BOND
1     1     6     ar
2     1     2     ar
3     1     15    1
4     2     3     ar
5     2     16    1
6     3     4     ar
7     3     17    1
8     4     5     ar
9     4     7     1
10    5     6     ar
11    5     18    1
12    6     19    1
13    7     11    1
14    7     8     1
15    7     20    1
16    8     9     1
17    8     21    1
18    8     22    1
19    9     10    2
20    10    11    1
21    10    12    1
22    12    13    1
23    12    14    1
@<TRIPOS>SUBSTRUCTURE
1   LIG    1    
 
########## Number      : 5
########## Name        : ZINC00000036
########## Description : AM1BCC_CHARGES =  -1.0001 ORIGINAL_CHARGES =  -1.0000

@<TRIPOS>MOLECULE
ZINC00000036
18    18    1     0     0    
SMALL
USER_CHARGES
****
****
@<TRIPOS>ATOM
1     C1       2.7129    0.2759    4.7883 C.ar    1  LIG  -0.1630  -0.1500 
2     C2       3.7857   -0.3187    4.1271 C.ar    1  LIG  -0.1442  -0.1500 
3     C3       4.2411   -1.5781    4.5225 C.ar    1  LIG  -0.1279  -0.1500 
4     C4       3.6259   -2.2595    5.5830 C.ar    1  LIG  -0.0343  -0.1435 
5     C5       2.5493   -1.6462    6.2432 C.ar    1  LIG  -0.1136  -0.1500 
6     C6       2.0953   -0.3871    5.8465 C.ar    1  LIG  -0.1430  -0.1500 
7     C7       4.1332   -3.6189    6.0111 C.3     1  LIG   0.0395   0.3175 
8     C8       4.8214   -3.5213    7.3818 C.2     1  LIG   0.9045   0.9060 
9     O1       4.2776   -4.1741    8.3189 O.co2   1  LIG  -0.8417  -0.9000 
10    O2       3.0275   -4.5152    6.0907 O.3     1  LIG  -0.6363  -0.6800 
11    H1       3.2365   -5.1693    6.7815 H       1  LIG   0.4229   0.4000 
12    H2       2.3602    1.2559    4.4806 H       1  LIG   0.1045   0.1500 
13    H3       4.2705    0.1986    3.3042 H       1  LIG   0.1065   0.1500 
14    H4       5.0829   -2.0233    3.9979 H       1  LIG   0.1280   0.1500 
15    H5       2.0582   -2.1487    7.0733 H       1  LIG   0.1438   0.1500 
16    H6       1.2608    0.0758    6.3652 H       1  LIG   0.1089   0.1500 
17    H7       4.8532   -3.9893    5.2644 H       1  LIG   0.0524   0.0000 
18    O3       5.8763   -2.8229    7.4044 O.co2   1  LIG  -0.8071  -0.9000 
@<TRIPOS>BOND
1     1     6     ar
2     1     2     ar
3     1     12    1
4     2     3     ar
5     2     13    1
6     3     4     ar
7     3     14    1
8     4     5     ar
9     4     7     1
10    5     6     ar
11    5     15    1
12    6     16    1
13    7     8     1
14    7     10    1
15    7     17    1
16    8     9     2
17    8     18    1
18    10    11    1
@<TRIPOS>SUBSTRUCTURE
1   LIG    1    
 
########## Number      : 6
########## Name        : ZINC00000041
########## Description : AM1BCC_CHARGES =   0.0002 ORIGINAL_CHARGES =   0.0000

@<TRIPOS>MOLECULE
ZINC00000041
22    24    1     0     0    
SMALL
USER_CHARGES
****
****
@<TRIPOS>ATOM
1     C1       5.3894   -3.6085    3.0016 C.3     1  LIG  -0.0807   0.0000 
2     C2       5.1605   -2.5500    1.8931 C.3     1  LIG  -0.0809   0.0000 
3     C3       4.4605   -3.6538    1.0541 C.3     1  LIG   0.1430   0.3739 
4     C4       4.2928   -4.4793    2.3290 C.3     1  LIG   0.1431   0.3739 
5     C5       3.0132   -4.5382    3.0517 C.2     1  LIG  -0.1392  -0.2660 
6     C6       2.6744   -5.8069    3.2768 C.2     1  LIG  -0.2097  -0.1356 
7     C7       3.7207   -6.6736    2.7163 C.2     1  LIG   0.6982   0.7056 
8     O1       3.7235   -7.8907    2.7492 O.2     1  LIG  -0.5345  -0.5700 
9     O2       4.6784   -5.8783    2.1598 O.3     1  LIG  -0.3756  -0.4079 
10    C8       3.3068   -3.2145    0.2597 C.2     1  LIG  -0.1389  -0.2660 
11    C9       3.4784   -3.5473   -1.0190 C.2     1  LIG  -0.2097  -0.1356 
12    C10      4.7739   -4.2280   -1.1524 C.2     1  LIG   0.6991   0.7056 
13    O3       5.2416   -4.6623   -2.1893 O.2     1  LIG  -0.5352  -0.5700 
14    O4       5.3535   -4.2819    0.0806 O.3     1  LIG  -0.3766  -0.4079 
15    H1       5.1890   -3.2558    4.0179 H       1  LIG   0.0624   0.0000 
16    H2       6.3888   -4.0589    2.9807 H       1  LIG   0.0908   0.0000 
17    H3       4.5083   -1.7251    2.2034 H       1  LIG   0.0620   0.0000 
18    H4       6.0762   -2.1312    1.4652 H       1  LIG   0.0903   0.0000 
19    H5       2.4306   -3.6811    3.3581 H       1  LIG   0.1640   0.1500 
20    H6       1.7960   -6.1707    3.7818 H       1  LIG   0.1822   0.1500 
21    H7       2.4421   -2.6951    0.6476 H       1  LIG   0.1638   0.1500 
22    H8       2.8077   -3.3605   -1.8401 H       1  LIG   0.1823   0.1500 
@<TRIPOS>BOND
1     1     4     1
2     1     2     1
3     1     15    1
4     1     16    1
5     2     3     1
6     2     17    1
7     2     18    1
8     3     14    1
9     3     4     1
10    3     10    1
11    4     9     1
12    4     5     1
13    5     6     2
14    5     19    1
15    6     7     1
16    6     20    1
17    7     8     2
18    7     9     1
19    10    11    2
20    10    21    1
21    11    12    1
22    11    22    1
23    12    13    2
24    12    14    1
@<TRIPOS>SUBSTRUCTURE
1   LIG    1    
 
########## Number      : 7
########## Name        : ZINC00000048
########## Description : AM1BCC_CHARGES =  -0.0001 ORIGINAL_CHARGES =   0.0000

@<TRIPOS>MOLECULE
ZINC00000048
30    31    1     0     0    
SMALL
USER_CHARGES
****
****
@<TRIPOS>ATOM
1     C1       6.5531   -7.1192    0.1755 C.3     1  LIG   0.1119   0.2800 
2     O1       5.1576   -7.3482    0.0218 O.3     1  LIG  -0.3056  -0.3625 
3     C2       4.3577   -6.2455   -0.0584 C.ar    1  LIG   0.1135   0.0825 
4     C3       4.7746   -4.9147   -0.0067 C.ar    1  LIG  -0.1664  -0.1500 
5     C4       3.8446   -3.8481   -0.1047 C.ar    1  LIG  -0.0649  -0.1435 
6     C5       2.4633   -4.1165   -0.2406 C.ar    1  LIG   0.1211   0.0825 
7     C6       2.0771   -5.4471   -0.2918 C.ar    1  LIG   0.0066   0.0825 
8     C7       3.0008   -6.4722   -0.2037 C.ar    1  LIG   0.0574   0.0825 
9     O2       2.4199   -7.7060   -0.2734 O.3     1  LIG  -0.3146  -0.3625 
10    C8       1.0352   -7.3559   -0.4154 C.3     1  LIG   0.3209   0.5600 
11    O3       0.8117   -5.9367   -0.4274 O.3     1  LIG  -0.3436  -0.3625 
12    O4       1.6505   -3.0201   -0.3072 O.3     1  LIG  -0.3201  -0.3625 
13    C9       0.2479   -3.2191   -0.4019 C.3     1  LIG   0.1153   0.2800 
14    C10      4.3724   -2.4285   -0.0204 C.3     1  LIG  -0.0007   0.2817 
15    C11      4.3626   -1.8977    1.3837 C.2     1  LIG  -0.1547  -0.2882 
16    C12      5.4640   -1.5589    2.0641 C.2     1  LIG  -0.2281  -0.3000 
17    H1       7.0480   -8.0939    0.2238 H       1  LIG   0.0699   0.0000 
18    H2       6.9620   -6.5806   -0.6859 H       1  LIG   0.0325   0.0000 
19    H3       6.7659   -6.5911    1.1109 H       1  LIG   0.0349   0.0000 
20    H4       5.8262   -4.6657    0.1117 H       1  LIG   0.1468   0.1500 
21    H5       0.6583   -7.7796   -1.3532 H       1  LIG   0.0706   0.0000 
22    H6       0.4732   -7.7937    0.4175 H       1  LIG   0.0708   0.0000 
23    H7      -0.2262   -2.2327   -0.4179 H       1  LIG   0.0626   0.0000 
24    H8      -0.0173   -3.7241   -1.3359 H       1  LIG   0.0455   0.0000 
25    H9      -0.1374   -3.7527    0.4726 H       1  LIG   0.0452   0.0000 
26    H10      5.3847   -2.3946   -0.4445 H       1  LIG   0.0483   0.0000 
27    H11      3.7775   -1.7662   -0.6610 H       1  LIG   0.0742   0.0000 
28    H12      3.3949   -1.7711    1.8633 H       1  LIG   0.1302   0.1500 
29    H13      5.3890   -1.1738    3.0754 H       1  LIG   0.1129   0.1500 
30    H14      6.4531   -1.6589    1.6307 H       1  LIG   0.1075   0.1500 
@<TRIPOS>BOND
1     1     2     1
2     1     17    1
3     1     18    1
4     1     19    1
5     2     3     1
6     3     8     ar
7     3     4     ar
8     4     5     ar
9     4     20    1
10    5     6     ar
11    5     14    1
12    6     7     ar
13    6     12    1
14    7     11    1
15    7     8     ar
16    8     9     1
17    9     10    1
18    10    11    1
19    10    21    1
20    10    22    1
21    12    13    1
22    13    23    1
23    13    24    1
24    13    25    1
25    14    15    1
26    14    26    1
27    14    27    1
28    15    16    2
29    15    28    1
30    16    29    1
31    16    30    1
@<TRIPOS>SUBSTRUCTURE
1   LIG    1    
 
########## Number      : 8
########## Name        : ZINC00000052
########## Description : AM1BCC_CHARGES =  -0.9998 ORIGINAL_CHARGES =  -1.0000

@<TRIPOS>MOLECULE
ZINC00000052
35    38    1     0     0    
SMALL
USER_CHARGES
****
****
@<TRIPOS>ATOM
1     C1      -0.7084    8.4253    6.8797 C.3     1  LIG   0.1169   0.2800 
2     O1      -0.1942    7.3049    6.1701 O.3     1  LIG  -0.3248  -0.3625 
3     C2       1.1059    6.9252    6.4210 C.ar    1  LIG   0.1344   0.0825 
4     C3       1.9316    7.5828    7.3297 C.ar    1  LIG  -0.2209  -0.1500 
5     C4       3.2259    7.1354    7.5190 C.ar    1  LIG  -0.1091  -0.1500 
6     C5       3.6983    6.0315    6.8056 C.ar    1  LIG  -0.1426  -0.1500 
7     C6       2.9120    5.3115    5.8677 C.ar    1  LIG   0.0254   0.0000 
8     C7       1.5887    5.7991    5.6917 C.ar    1  LIG  -0.0511   0.0000 
9     C8       0.7583    5.1391    4.7861 C.ar    1  LIG  -0.1035  -0.1500 
10    C9       1.2136    4.0405    4.0517 C.ar    1  LIG  -0.0745   0.1330 
11    C10      2.5267    3.5063    4.1439 C.ar    1  LIG  -0.0080   0.0000 
12    C11      3.3802    4.1482    5.1048 C.ar    1  LIG  -0.0100   0.0000 
13    C12      4.6676    3.5750    5.2467 C.ar    1  LIG   0.0197   0.0825 
14    C13      5.1196    2.4950    4.5194 C.ar    1  LIG   0.0574   0.0825 
15    C14      4.3434    1.8917    3.5733 C.ar    1  LIG  -0.0887  -0.1500 
16    C15      3.0527    2.3940    3.3669 C.ar    1  LIG  -0.0835  -0.1790 
17    C16      2.3030    1.7274    2.2545 C.2     1  LIG   0.9043   0.9790 
18    O2       2.2170    2.3767    1.1687 O.co2   1  LIG  -0.7934  -0.9000 
19    O3       6.3895    2.1158    4.8270 O.3     1  LIG  -0.3404  -0.3625 
20    C17      6.7161    3.0674    5.8460 C.3     1  LIG   0.3230   0.5600 
21    O4       5.6451    3.9839    6.1159 O.3     1  LIG  -0.3553  -0.3625 
22    N1       0.1853    3.4338    3.2332 N.pl3   1  LIG   0.3249   0.9070 
23    O5      -0.3523    2.4119    3.6790 O.2     1  LIG  -0.1862  -0.5200 
24    O6      -0.1222    4.0238    2.1891 O.3     1  LIG  -0.1961  -0.5200 
25    H1      -1.7424    8.5783    6.5560 H       1  LIG   0.0618   0.0000 
26    H2      -0.7231    8.2369    7.9582 H       1  LIG   0.0276   0.0000 
27    H3      -0.1482    9.3352    6.6409 H       1  LIG   0.0289   0.0000 
28    H4       1.6015    8.4428    7.9022 H       1  LIG   0.1278   0.1500 
29    H5       3.8798    7.6432    8.2228 H       1  LIG   0.1222   0.1500 
30    H6       4.7267    5.7620    7.0153 H       1  LIG   0.1569   0.1500 
31    H7      -0.2707    5.4706    4.6465 H       1  LIG   0.1614   0.1500 
32    H8       4.7248    1.0579    2.9919 H       1  LIG   0.1736   0.1500 
33    H9       6.9606    2.5293    6.7689 H       1  LIG   0.0541   0.0000 
34    H10      7.5968    3.6379    5.5297 H       1  LIG   0.0532   0.0000 
35    O7       1.8576    0.5638    2.4907 O.co2   1  LIG  -0.7852  -0.9000 
@<TRIPOS>BOND
1     1     2     1
2     1     25    1
3     1     26    1
4     1     27    1
5     2     3     1
6     3     8     ar
7     3     4     ar
8     4     5     ar
9     4     28    1
10    5     6     ar
11    5     29    1
12    6     7     ar
13    6     30    1
14    7     12    ar
15    7     8     ar
16    8     9     ar
17    9     10    ar
18    9     31    1
19    10    11    ar
20    10    22    1
21    11    16    ar
22    11    12    ar
23    12    13    ar
24    13    21    1
25    13    14    ar
26    14    15    ar
27    14    19    1
28    15    16    ar
29    15    32    1
30    16    17    1
31    17    18    2
32    17    35    1
33    19    20    1
34    20    21    1
35    20    33    1
36    20    34    1
37    22    23    2
38    22    24    1
@<TRIPOS>SUBSTRUCTURE
1   LIG    1    
 
########## Number      : 9
########## Name        : ZINC00000053
########## Description : AM1BCC_CHARGES =  -1.0001 ORIGINAL_CHARGES =  -1.0000

@<TRIPOS>MOLECULE
ZINC00000053
20    20    1     0     0    
SMALL
USER_CHARGES
****
****
@<TRIPOS>ATOM
1     C1       7.6188   -2.2856    1.6780 C.3     1  LIG  -0.1511   0.0610 
2     C2       6.7461   -2.9309    2.7131 C.2     1  LIG   0.7039   0.6590 
3     O1       6.3453   -2.3679    3.7233 O.2     1  LIG  -0.5568  -0.5700 
4     O2       6.4916   -4.2420    2.3241 O.3     1  LIG  -0.3846  -0.2325 
5     C3       5.6587   -4.9390    3.2094 C.ar    1  LIG   0.1411   0.0825 
6     C4       6.2287   -5.4409    4.3860 C.ar    1  LIG  -0.1611  -0.1500 
7     C5       5.4496   -6.1896    5.2627 C.ar    1  LIG  -0.1462  -0.1500 
8     C6       4.1156   -6.4475    4.9557 C.ar    1  LIG  -0.1688  -0.1500 
9     C7       3.5591   -5.9607    3.7686 C.ar    1  LIG  -0.0958  -0.1500 
10    C8       4.3219   -5.1986    2.8677 C.ar    1  LIG  -0.1315  -0.1790 
11    C9       3.6901   -4.7045    1.5919 C.2     1  LIG   0.9220   0.9790 
12    O3       4.1312   -3.6227    1.0936 O.co2   1  LIG  -0.8474  -0.9000 
13    H1       7.8181   -1.2498    1.9674 H       1  LIG   0.0384   0.0000 
14    H2       8.5707   -2.8183    1.6115 H       1  LIG   0.0484   0.0000 
15    H3       7.1088   -2.2843    0.7114 H       1  LIG   0.1248   0.0000 
16    H4       7.2727   -5.2513    4.6181 H       1  LIG   0.1213   0.1500 
17    H5       5.8814   -6.5762    6.1810 H       1  LIG   0.1044   0.1500 
18    H6       3.5055   -7.0333    5.6374 H       1  LIG   0.1058   0.1500 
19    H7       2.5156   -6.1826    3.5549 H       1  LIG   0.1504   0.1500 
20    O4       2.7472   -5.4083    1.1106 O.co2   1  LIG  -0.8173  -0.9000 
@<TRIPOS>BOND
1     1     2     1
2     1     13    1
3     1     14    1
4     1     15    1
5     2     3     2
6     2     4     1
7     4     5     1
8     5     10    ar
9     5     6     ar
10    6     7     ar
11    6     16    1
12    7     8     ar
13    7     17    1
14    8     9     ar
15    8     18    1
16    9     10    ar
17    9     19    1
18    10    11    1
19    11    12    2
20    11    20    1
@<TRIPOS>SUBSTRUCTURE
1   LIG    1    
 
########## Number      : 10
########## Name        : ZINC00000071
########## Description : AM1BCC_CHARGES =   0.0000 ORIGINAL_CHARGES =  -0.0000

@<TRIPOS>MOLECULE
ZINC00000071
34    36    1     0     0    
SMALL
USER_CHARGES
****
****
@<TRIPOS>ATOM
1     C1       3.9785    0.5008   -2.4654 C.3     1  LIG  -0.0907   0.0000 
2     C2       3.3916    0.7264   -3.8497 C.3     1  LIG  -0.0355   0.1800 
3     C3       1.9178    0.9211   -3.7955 C.2     1  LIG   0.1033  -0.0400 
4     C4       0.8272    0.0936   -3.5620 C.2     1  LIG  -0.2150  -0.0860 
5     C5      -0.3181    0.9530   -3.5545 C.ar    1  LIG  -0.0769   0.0000 
6     C6      -1.7031    0.7838   -3.3632 C.ar    1  LIG  -0.0760  -0.1500 
7     C7      -2.5410    1.9043   -3.4477 C.ar    1  LIG  -0.1454  -0.1500 
8     C8      -2.0212    3.1718   -3.7181 C.ar    1  LIG  -0.1133  -0.1500 
9     C9      -0.6506    3.3644   -3.9120 C.ar    1  LIG  -0.1208  -0.1500 
10    C10      0.1551    2.2308   -3.8201 C.ar    1  LIG   0.0515   0.1400 
11    O1       1.5049    2.2104   -3.9672 O.3     1  LIG  -0.1981  -0.2800 
12    C11      0.8361   -1.3373   -3.3056 C.2     1  LIG   0.6213   0.5698 
13    O2       0.1153   -1.8482   -2.4536 O.2     1  LIG  -0.5257  -0.5700 
14    C12      1.7094   -2.2202   -4.1085 C.ar    1  LIG  -0.2039   0.0862 
15    C13      1.8225   -2.0519   -5.4937 C.ar    1  LIG  -0.0623  -0.1500 
16    C14      2.6343   -2.9145   -6.2306 C.ar    1  LIG  -0.1702  -0.1500 
17    C15      3.3160   -3.9425   -5.5831 C.ar    1  LIG   0.1461   0.0825 
18    C16      3.1944   -4.1265   -4.2067 C.ar    1  LIG  -0.2259  -0.1500 
19    C17      2.3826   -3.2663   -3.4669 C.ar    1  LIG  -0.0432  -0.1500 
20    O3       4.1024   -4.7676   -6.3366 O.3     1  LIG  -0.4930  -0.5325 
21    H1       4.5065   -5.4310   -5.7516 H       1  LIG   0.4232   0.4500 
22    H2       5.0648    0.3818   -2.5295 H       1  LIG   0.0431   0.0000 
23    H3       3.7678    1.3483   -1.8041 H       1  LIG   0.0477   0.0000 
24    H4       3.5672   -0.3997   -1.9975 H       1  LIG   0.0437   0.0000 
25    H5       3.8648    1.6097   -4.2955 H       1  LIG   0.0722   0.0000 
26    H6       3.6461   -0.1151   -4.4997 H       1  LIG   0.0737   0.0000 
27    H7      -2.1242   -0.1955   -3.1550 H       1  LIG   0.1552   0.1500 
28    H8      -3.6114    1.7830   -3.3011 H       1  LIG   0.1358   0.1500 
29    H9      -2.6936    4.0242   -3.7784 H       1  LIG   0.1360   0.1500 
30    H10     -0.2365    4.3437   -4.1201 H       1  LIG   0.1503   0.1500 
31    H11      1.2831   -1.2641   -6.0127 H       1  LIG   0.1468   0.1500 
32    H12      2.7276   -2.7837   -7.3051 H       1  LIG   0.1557   0.1500 
33    H13      3.7207   -4.9314   -3.7020 H       1  LIG   0.1394   0.1500 
34    H14      2.2890   -3.4145   -2.3940 H       1  LIG   0.1509   0.1500 
@<TRIPOS>BOND
1     1     2     1
2     1     22    1
3     1     23    1
4     1     24    1
5     2     3     1
6     2     25    1
7     2     26    1
8     3     11    1
9     3     4     2
10    4     5     1
11    4     12    1
12    5     10    ar
13    5     6     ar
14    6     7     ar
15    6     27    1
16    7     8     ar
17    7     28    1
18    8     9     ar
19    8     29    1
20    9     10    ar
21    9     30    1
22    10    11    1
23    12    13    2
24    12    14    1
25    14    19    ar
26    14    15    ar
27    15    16    ar
28    15    31    1
29    16    17    ar
30    16    32    1
31    17    18    ar
32    17    20    1
33    18    19    ar
34    18    33    1
35    19    34    1
36    20    21    1
@<TRIPOS>SUBSTRUCTURE
1   LIG    1    
 
########## Number      : 11
########## Name        : ZINC00000082
########## Description : AM1BCC_CHARGES =   1.0000 ORIGINAL_CHARGES =   0.9999

@<TRIPOS>MOLECULE
ZINC00000082
29    29    1     0     0    
SMALL
USER_CHARGES
****
****
@<TRIPOS>ATOM
1     C1       6.9819   -1.8819   -0.3889 C.3     1  LIG   0.0001   0.3276 
2     N1       6.2362   -2.8517    0.4138 N.pl3   1  LIG  -0.4078  -0.8443 
3     C2       6.4862   -3.0644    1.7716 C.cat   1  LIG   0.4996   1.2000 
4     N2       5.7389   -4.0053    2.4825 N.pl3   1  LIG  -0.3842  -0.8443 
5     C3       4.6735   -4.8082    1.8666 C.3     1  LIG   0.0814   0.4711 
6     C4       4.0810   -5.7132    2.9112 C.ar    1  LIG  -0.1611  -0.1435 
7     C5       4.6228   -6.9855    3.1385 C.ar    1  LIG  -0.1028  -0.1500 
8     C6       4.0900   -7.8139    4.1275 C.ar    1  LIG  -0.1233  -0.1500 
9     C7       3.0176   -7.3759    4.9023 C.ar    1  LIG  -0.0886  -0.1500 
10    C8       2.4786   -6.1082    4.6912 C.ar    1  LIG  -0.1233  -0.1500 
11    C9       3.0097   -5.2780    3.7028 C.ar    1  LIG  -0.1024  -0.1500 
12    N3       7.4855   -2.3344    2.4195 N.pl3   1  LIG  -0.3912  -0.8443 
13    C10      7.8018   -2.5044    3.8379 C.3     1  LIG   0.0003   0.3276 
14    H1       5.5055   -3.3924   -0.0387 H       1  LIG   0.3241   0.4500 
15    H2       5.9456   -4.1360    3.4688 H       1  LIG   0.3262   0.4500 
16    H3       8.0166   -1.6553    1.8829 H       1  LIG   0.3232   0.4500 
17    H4       6.5921   -1.9127   -1.4101 H       1  LIG   0.0964   0.0000 
18    H5       6.8300   -0.8774    0.0131 H       1  LIG   0.0652   0.0000 
19    H6       8.0390   -2.1572   -0.4099 H       1  LIG   0.0650   0.0000 
20    H7       3.9044   -4.1380    1.4682 H       1  LIG   0.0684   0.0000 
21    H8       5.0985   -5.4021    1.0504 H       1  LIG   0.0683   0.0000 
22    H9       5.4636   -7.3396    2.5470 H       1  LIG   0.1378   0.1500 
23    H10      4.5132   -8.8004    4.2949 H       1  LIG   0.1538   0.1500 
24    H11      2.6039   -8.0211    5.6720 H       1  LIG   0.1552   0.1500 
25    H12      1.6454   -5.7649    5.2981 H       1  LIG   0.1538   0.1500 
26    H13      2.5819   -4.2894    3.5551 H       1  LIG   0.1379   0.1500 
27    H14      8.6156   -1.8191    4.0905 H       1  LIG   0.0956   0.0000 
28    H15      6.9287   -2.2483    4.4428 H       1  LIG   0.0662   0.0000 
29    H16      8.1377   -3.5281    4.0198 H       1  LIG   0.0662   0.0000 
@<TRIPOS>BOND
1     1     2     1
2     1     17    1
3     1     18    1
4     1     19    1
5     2     3     2
6     2     14    1
7     3     4     1
8     3     12    1
9     4     5     1
10    4     15    1
11    5     6     1
12    5     20    1
13    5     21    1
14    6     11    ar
15    6     7     ar
16    7     8     ar
17    7     22    1
18    8     9     ar
19    8     23    1
20    9     10    ar
21    9     24    1
22    10    11    ar
23    10    25    1
24    11    26    1
25    12    13    1
26    12    16    1
27    13    27    1
28    13    28    1
29    13    29    1
@<TRIPOS>SUBSTRUCTURE
1   LIG    1    
 
########## Number      : 12
########## Name        : ZINC00000083
########## Description : AM1BCC_CHARGES =   0.9999 ORIGINAL_CHARGES =   1.0000

@<TRIPOS>MOLECULE
ZINC00000083
28    27    1     0     0    
SMALL
USER_CHARGES
****
****
@<TRIPOS>ATOM
1     C1       5.7152   -5.2906   -1.2702 C.3     1  LIG  -0.1250   0.0000 
2     C2       4.6877   -6.3724   -1.6189 C.3     1  LIG   0.1478   0.2800 
3     C3       4.6120   -7.3964   -0.4764 C.3     1  LIG   0.1041   0.5030 
4     N1       3.9552   -8.7436   -0.8636 N.4     1  LIG  -0.6009  -1.0120 
5     C4       3.8806   -9.5998    0.4071 C.3     1  LIG   0.0893   0.5030 
6     C5       2.5400   -8.5665   -1.3965 C.3     1  LIG   0.0939   0.5030 
7     C6       4.7960   -9.4968   -1.8899 C.3     1  LIG   0.0844   0.5030 
8     O1       3.3997   -5.7437   -1.7496 O.3     1  LIG  -0.4844  -0.4300 
9     C7       3.0860   -5.2032   -2.9602 C.2     1  LIG   0.7373   0.7800 
10    O2       3.8011   -5.2166   -3.9544 O.2     1  LIG  -0.5698  -0.5700 
11    N2       1.8409   -4.6373   -2.9161 N.am    1  LIG  -0.6215  -0.8000 
12    H1       1.4444   -4.1856   -3.7322 H       1  LIG   0.3521   0.3700 
13    H2       1.2886   -4.6481   -2.0667 H       1  LIG   0.3344   0.3700 
14    H3       5.7680   -4.5347   -2.0606 H       1  LIG   0.0871   0.0000 
15    H4       5.4316   -4.7653   -0.3514 H       1  LIG   0.0634   0.0000 
16    H5       6.7132   -5.7195   -1.1373 H       1  LIG   0.0623   0.0000 
17    H6       5.0075   -6.8402   -2.5588 H       1  LIG   0.0992   0.0000 
18    H7       5.6151   -7.6493   -0.1129 H       1  LIG   0.1065   0.0000 
19    H8       4.0224   -6.9968    0.3579 H       1  LIG   0.1136   0.0000 
20    H9       3.4351  -10.5659    0.1513 H       1  LIG   0.1021   0.0000 
21    H10      4.8960   -9.7380    0.7903 H       1  LIG   0.0998   0.0000 
22    H11      3.2595   -9.0763    1.1400 H       1  LIG   0.1022   0.0000 
23    H12      2.0822   -9.5555   -1.4971 H       1  LIG   0.0961   0.0000 
24    H13      1.9752   -7.9564   -0.6860 H       1  LIG   0.1042   0.0000 
25    H14      2.5881   -8.0889   -2.3778 H       1  LIG   0.1115   0.0000 
26    H15      4.3638  -10.4931   -2.0253 H       1  LIG   0.1013   0.0000 
27    H16      4.7724   -8.9561   -2.8386 H       1  LIG   0.1099   0.0000 
28    H17      5.8193   -9.5732   -1.5113 H       1  LIG   0.0990   0.0000 
@<TRIPOS>BOND
1     1     2     1
2     1     14    1
3     1     15    1
4     1     16    1
5     2     3     1
6     2     8     1
7     2     17    1
8     3     4     1
9     3     18    1
10    3     19    1
11    4     5     1
12    4     6     1
13    4     7     1
14    5     20    1
15    5     21    1
16    5     22    1
17    6     23    1
18    6     24    1
19    6     25    1
20    7     26    1
21    7     27    1
22    7     28    1
23    8     9     1
24    9     10    2
25    9     11    am
26    11    12    1
27    11    13    1
@<TRIPOS>SUBSTRUCTURE
1   LIG    1    
 
########## Number      : 13
########## Name        : ZINC00000099
########## Description : AM1BCC_CHARGES =  -0.0002 ORIGINAL_CHARGES =   0.0000

@<TRIPOS>MOLECULE
ZINC00000099
33    33    1     0     0    
SMALL
USER_CHARGES
****
****
@<TRIPOS>ATOM
1     C1       5.6600  -10.6121   -1.8034 C.3     1  LIG  -0.0999   0.0000 
2     C2       5.2879   -9.1402   -1.7933 C.3     1  LIG   0.1283   0.2800 
3     O1       4.6388   -8.8594   -0.5537 O.3     1  LIG  -0.3316  -0.3625 
4     C3       4.2219   -7.5720   -0.3483 C.ar    1  LIG   0.1055   0.0825 
5     C4       4.3725   -6.5093   -1.2392 C.ar    1  LIG  -0.1803  -0.1500 
6     C5       3.8997   -5.2314   -0.9089 C.ar    1  LIG  -0.1177  -0.1500 
7     C6       3.2705   -4.9999    0.3165 C.ar    1  LIG   0.0297   0.1170 
8     C7       3.1215   -6.0704    1.2069 C.ar    1  LIG  -0.1496  -0.1500 
9     C8       3.5930   -7.3436    0.8770 C.ar    1  LIG  -0.1320  -0.1500 
10    N1       2.7644   -3.7458    0.7301 N.am    1  LIG  -0.4648  -0.5470 
11    C9       2.7989   -2.5456    0.0282 C.2     1  LIG   0.6681   0.5690 
12    O2       3.2863   -2.3464   -1.0797 O.2     1  LIG  -0.6134  -0.5700 
13    C10      2.1440   -1.4293    0.8330 C.3     1  LIG  -0.1969   0.0610 
14    C11      2.0652   -0.1118    0.0592 C.3     1  LIG   0.1591   0.2800 
15    C12      1.1801    0.8901    0.7941 C.3     1  LIG  -0.0962   0.0000 
16    O3       3.3667    0.4435   -0.0461 O.3     1  LIG  -0.6059  -0.6800 
17    H1       2.3294   -3.7326    1.6492 H       1  LIG   0.3150   0.3700 
18    H2       3.8937   -0.1572   -0.6019 H       1  LIG   0.4251   0.4000 
19    H3       6.1630  -10.8808   -2.7365 H       1  LIG   0.0452   0.0000 
20    H4       6.3224  -10.8480   -0.9639 H       1  LIG   0.0513   0.0000 
21    H5       4.7674  -11.2362   -1.6902 H       1  LIG   0.0503   0.0000 
22    H6       6.2002   -8.5403   -1.8896 H       1  LIG   0.0385   0.0000 
23    H7       4.6116   -8.9369   -2.6316 H       1  LIG   0.0382   0.0000 
24    H8       4.8539   -6.6350   -2.2043 H       1  LIG   0.1406   0.1500 
25    H9       4.0442   -4.4450   -1.6412 H       1  LIG   0.1736   0.1500 
26    H10      2.6366   -5.9288    2.1702 H       1  LIG   0.1299   0.1500 
27    H11      3.4652   -8.1582    1.5859 H       1  LIG   0.1500   0.1500 
28    H12      1.1359   -1.7636    1.1069 H       1  LIG   0.0695   0.0000 
29    H13      2.7290   -1.2973    1.7517 H       1  LIG   0.0825   0.0000 
30    H14      1.6320   -0.2695   -0.9399 H       1  LIG   0.0488   0.0000 
31    H15      1.1530    1.8421    0.2527 H       1  LIG   0.0584   0.0000 
32    H16      0.1561    0.5183    0.8966 H       1  LIG   0.0365   0.0000 
33    H17      1.5776    1.1070    1.7918 H       1  LIG   0.0440   0.0000 
@<TRIPOS>BOND
1     1     2     1
2     1     19    1
3     1     20    1
4     1     21    1
5     2     3     1
6     2     22    1
7     2     23    1
8     3     4     1
9     4     9     ar
10    4     5     ar
11    5     6     ar
12    5     24    1
13    6     7     ar
14    6     25    1
15    7     8     ar
16    7     10    1
17    8     9     ar
18    8     26    1
19    9     27    1
20    10    11    am
21    10    17    1
22    11    12    2
23    11    13    1
24    13    14    1
25    13    28    1
26    13    29    1
27    14    15    1
28    14    16    1
29    14    30    1
30    15    31    1
31    15    32    1
32    15    33    1
33    16    18    1
@<TRIPOS>SUBSTRUCTURE
1   LIG    1    
 
########## Number      : 14
########## Name        : ZINC00000103
########## Description : AM1BCC_CHARGES =   1.0000 ORIGINAL_CHARGES =   1.0000

@<TRIPOS>MOLECULE
ZINC00000103
44    48    1     0     0    
SMALL
USER_CHARGES
****
****
@<TRIPOS>ATOM
1     C1       4.6663    0.5447    5.1770 C.3     1  LIG   0.0809   0.5030 
2     C2       5.9755    1.5638    3.2827 C.3     1  LIG   0.1151   0.5030 
3     C3       5.8203    2.9780    3.8213 C.3     1  LIG  -0.0554   0.1435 
4     C4       4.4470    3.5634    3.6092 C.ar    1  LIG  -0.0773  -0.1435 
5     C5       4.2731    4.9310    3.8227 C.ar    1  LIG  -0.1156  -0.1500 
6     C6       3.0116    5.4454    3.6606 C.ar    1  LIG   0.1058   0.0825 
7     C7       1.9397    4.6605    3.2775 C.ar    1  LIG   0.0561   0.0825 
8     C8       2.0250    3.2771    3.0210 C.ar    1  LIG   0.0306   0.0000 
9     C9       3.3327    2.7466    3.2555 C.ar    1  LIG  -0.1364  -0.1435 
10    C10      3.5496    1.2664    2.9952 C.3     1  LIG   0.1946   0.6465 
11    C11      2.3204    0.4623    3.4335 C.3     1  LIG  -0.0377   0.1435 
12    C12      1.0770    1.0121    2.7663 C.ar    1  LIG  -0.1058  -0.1435 
13    C13      0.9315    2.4067    2.5752 C.ar    1  LIG  -0.1114   0.0000 
14    C14     -0.3104    2.7773    1.9517 C.ar    1  LIG   0.1582   0.0825 
15    C15     -1.3346    1.8565    1.6301 C.ar    1  LIG   0.1256   0.0825 
16    C16     -1.1407    0.5088    1.8938 C.ar    1  LIG  -0.1686  -0.1500 
17    C17      0.0597    0.0902    2.4493 C.ar    1  LIG  -0.1036  -0.1500 
18    O1      -2.4631    2.3843    1.0528 O.3     1  LIG  -0.2909  -0.3625 
19    C18     -3.5129    1.4820    0.7255 C.3     1  LIG   0.1046   0.2800 
20    O2      -0.5672    4.0642    1.5338 O.3     1  LIG  -0.4482  -0.5325 
21    O3       0.7949    5.4097    3.2424 O.3     1  LIG  -0.3210  -0.3625 
22    C19      1.2694    6.7180    3.6023 C.3     1  LIG   0.3210   0.5600 
23    O4       2.6788    6.7490    3.8687 O.3     1  LIG  -0.3141  -0.3625 
24    H1       0.2402    4.5953    1.6035 H       1  LIG   0.4278   0.4500 
25    H2       5.6617    0.3399    5.5812 H       1  LIG   0.0969   0.0000 
26    H3       4.2486    1.4527    5.6171 H       1  LIG   0.1148   0.0000 
27    H4       4.0259   -0.3200    5.3675 H       1  LIG   0.1017   0.0000 
28    H5       6.8815    1.0832    3.6672 H       1  LIG   0.1003   0.0000 
29    H6       6.0248    1.5520    2.1873 H       1  LIG   0.1060   0.0000 
30    H7       6.0370    2.9905    4.8968 H       1  LIG   0.0808   0.0000 
31    H8       6.5697    3.6154    3.3361 H       1  LIG   0.1069   0.0000 
32    H9       5.0991    5.5681    4.1210 H       1  LIG   0.1766   0.1500 
33    H10      3.6630    1.1185    1.9027 H       1  LIG   0.1113   0.0000 
34    H11      2.4648   -0.5930    3.1706 H       1  LIG   0.0622   0.0000 
35    H12      2.1440    0.5217    4.5144 H       1  LIG   0.0778   0.0000 
36    H13     -1.8909   -0.2422    1.6706 H       1  LIG   0.1594   0.1500 
37    H14      0.2016   -0.9702    2.6483 H       1  LIG   0.1421   0.1500 
38    H15     -4.3289    2.0648    0.2874 H       1  LIG   0.0864   0.0000 
39    H16     -3.1870    0.7521   -0.0227 H       1  LIG   0.0386   0.0000 
40    H17     -3.9020    0.9868    1.6213 H       1  LIG   0.0415   0.0000 
41    H18      1.0490    7.4100    2.7815 H       1  LIG   0.0969   0.0000 
42    H19      0.7326    7.0528    4.4972 H       1  LIG   0.0980   0.0000 
43    N1       4.8009    0.7084    3.6731 N.4     1  LIG  -0.6800  -0.9590 
44    H20      4.9834   -0.2576    3.3497 H       1  LIG   0.4475   0.4500 
@<TRIPOS>BOND
1     1     25    1
2     1     26    1
3     1     27    1
4     1     43    1
5     2     3     1
6     2     28    1
7     2     29    1
8     2     43    1
9     3     4     1
10    3     30    1
11    3     31    1
12    4     9     ar
13    4     5     ar
14    5     6     ar
15    5     32    1
16    6     23    1
17    6     7     ar
18    7     8     ar
19    7     21    1
20    8     13    1
21    8     9     ar
22    9     10    1
23    10    11    1
24    10    33    1
25    10    43    1
26    11    12    1
27    11    34    1
28    11    35    1
29    12    17    ar
30    12    13    ar
31    13    14    ar
32    14    15    ar
33    14    20    1
34    15    16    ar
35    15    18    1
36    16    17    ar
37    16    36    1
38    17    37    1
39    18    19    1
40    19    38    1
41    19    39    1
42    19    40    1
43    20    24    1
44    21    22    1
45    22    23    1
46    22    41    1
47    22    42    1
48    43    44    1
@<TRIPOS>SUBSTRUCTURE
1   LIG    1    
 
########## Number      : 15
########## Name        : ZINC00000111
########## Description : AM1BCC_CHARGES =  -1.0001 ORIGINAL_CHARGES =  -1.0000

@<TRIPOS>MOLECULE
ZINC00000111
33    34    1     0     0    
SMALL
USER_CHARGES
****
****
@<TRIPOS>ATOM
1     C1       6.1420  -10.3445    0.6028 C.3     1  LIG  -0.0914   0.0000 
2     C2       5.3939  -10.8435   -0.6286 C.3     1  LIG  -0.0576   0.0000 
3     C3       3.9004  -10.4442   -0.6281 C.3     1  LIG  -0.1717   0.0375 
4     C4       3.6883   -8.9463   -0.7536 C.ar    1  LIG   0.0050  -0.1435 
5     C5       4.2190   -8.2047   -1.8166 C.ar    1  LIG  -0.1226  -0.1500 
6     C6       4.0018   -6.8254   -1.9078 C.ar    1  LIG  -0.1210  -0.1500 
7     C7       3.2448   -6.1417   -0.9428 C.ar    1  LIG  -0.0952   0.0000 
8     C8       2.7096   -6.8928    0.1160 C.ar    1  LIG  -0.1230  -0.1500 
9     C9       2.9249   -8.2722    0.2080 C.ar    1  LIG  -0.1522  -0.1500 
10    C10      3.0169   -4.6877   -1.0397 C.ar    1  LIG   0.0054   0.0000 
11    C11      2.5958   -4.0963   -2.2442 C.ar    1  LIG  -0.1279  -0.1500 
12    C12      2.3796   -2.7185   -2.3360 C.ar    1  LIG  -0.1343  -0.1500 
13    C13      2.5808   -1.9047   -1.2249 C.ar    1  LIG  -0.1521  -0.1500 
14    C14      2.9976   -2.4677   -0.0222 C.ar    1  LIG  -0.1360  -0.1500 
15    C15      3.2131   -3.8456    0.0695 C.ar    1  LIG  -0.1336  -0.1500 
16    C16      3.1456  -11.1270   -1.7780 C.2     1  LIG   0.9245   0.9060 
17    O1       3.8182  -11.4269   -2.8041 O.co2   1  LIG  -0.8392  -0.9000 
18    H1       7.1755  -10.7050    0.5849 H       1  LIG   0.0070   0.0000 
19    H2       6.1706   -9.2514    0.6399 H       1  LIG   0.0269   0.0000 
20    H3       5.6735  -10.7099    1.5221 H       1  LIG   0.0167   0.0000 
21    H4       5.9108  -10.4794   -1.5244 H       1  LIG   0.0512   0.0000 
22    H5       5.4703  -11.9384   -0.6527 H       1  LIG   0.0411   0.0000 
23    H6       3.5174  -10.7830    0.3499 H       1  LIG   0.0475   0.0000 
24    H7       4.8056   -8.6922   -2.5915 H       1  LIG   0.1775   0.1500 
25    H8       4.4425   -6.2889   -2.7458 H       1  LIG   0.1157   0.1500 
26    H9       2.1035   -6.4133    0.8820 H       1  LIG   0.1114   0.1500 
27    H10      2.4861   -8.8167    1.0408 H       1  LIG   0.1249   0.1500 
28    H11      2.4204   -4.7076   -3.1273 H       1  LIG   0.1402   0.1500 
29    H12      2.0520   -2.2834   -3.2759 H       1  LIG   0.1198   0.1500 
30    H13      2.4130   -0.8341   -1.2961 H       1  LIG   0.1166   0.1500 
31    H14      3.1579   -1.8358    0.8468 H       1  LIG   0.1174   0.1500 
32    H15      3.5482   -4.2548    1.0205 H       1  LIG   0.1326   0.1500 
33    O2       1.9144  -11.3182   -1.5508 O.co2   1  LIG  -0.8237  -0.9000 
@<TRIPOS>BOND
1     1     2     1
2     1     18    1
3     1     19    1
4     1     20    1
5     2     3     1
6     2     21    1
7     2     22    1
8     3     4     1
9     3     16    1
10    3     23    1
11    4     9     ar
12    4     5     ar
13    5     6     ar
14    5     24    1
15    6     7     ar
16    6     25    1
17    7     8     ar
18    7     10    1
19    8     9     ar
20    8     26    1
21    9     27    1
22    10    15    ar
23    10    11    ar
24    11    12    ar
25    11    28    1
26    12    13    ar
27    12    29    1
28    13    14    ar
29    13    30    1
30    14    15    ar
31    14    31    1
32    15    32    1
33    16    17    2
34    16    33    1
@<TRIPOS>SUBSTRUCTURE
1   LIG    1    
 
########## Number      : 16
########## Name        : ZINC00000121
########## Description : AM1BCC_CHARGES =  -1.0002 ORIGINAL_CHARGES =  -1.0000

@<TRIPOS>MOLECULE
ZINC00000121
41    42    1     0     0    
SMALL
USER_CHARGES
****
****
@<TRIPOS>ATOM
1     C1       3.9443    0.3617    3.2936 C.3     1  LIG  -0.0846   0.0000 
2     C2       4.0435    0.9906    1.9097 C.3     1  LIG  -0.0480   0.1382 
3     C3       2.6770    1.2225    1.2829 C.2     1  LIG  -0.0719  -0.2764 
4     C4       2.1293    0.4037    0.3531 C.2     1  LIG  -0.1071  -0.1666 
5     C5       0.7573    0.6089   -0.2463 C.3     1  LIG  -0.0268   0.1382 
6     C6       0.0864    1.9241    0.1461 C.3     1  LIG  -0.0584   0.0000 
7     C7       0.4168    2.2889    1.5990 C.3     1  LIG  -0.1782  -0.1060 
8     C8       1.9409    2.4626    1.7887 C.3     1  LIG  -0.0132   0.1382 
9     C9       2.5114    3.7056    1.0724 C.3     1  LIG  -0.0784   0.0000 
10    C10     -0.3059    3.5747    2.0434 C.2     1  LIG   0.9139   0.9060 
11    O1      -0.9256    4.2201    1.1536 O.co2   1  LIG  -0.8425  -0.9000 
12    C11      2.8186   -0.7999   -0.1471 C.ar    1  LIG  -0.0464   0.0284 
13    C12      3.6278   -0.7273   -1.2857 C.ar    1  LIG  -0.0968  -0.1500 
14    C13      4.2813   -1.8688   -1.7545 C.ar    1  LIG  -0.1612  -0.1500 
15    C14      4.1360   -3.0945   -1.0962 C.ar    1  LIG   0.0992   0.0825 
16    C15      3.3267   -3.1680    0.0398 C.ar    1  LIG  -0.2049  -0.1500 
17    C16      2.6708   -2.0262    0.5111 C.ar    1  LIG  -0.0941  -0.1500 
18    O2       4.8290   -4.1351   -1.6556 O.3     1  LIG  -0.3369  -0.3625 
19    C17      4.7110   -5.4007   -1.0165 C.3     1  LIG   0.1180   0.2800 
20    H1       4.9464    0.1882    3.6991 H       1  LIG   0.0140   0.0000 
21    H2       3.4096    1.0104    3.9944 H       1  LIG   0.0476   0.0000 
22    H3       3.4249   -0.6013    3.2575 H       1  LIG   0.0285   0.0000 
23    H4       4.6732    0.3528    1.2805 H       1  LIG   0.0337   0.0000 
24    H5       4.5870    1.9390    1.9833 H       1  LIG   0.0443   0.0000 
25    H6       0.8052    0.5571   -1.3412 H       1  LIG   0.0244   0.0000 
26    H7       0.1124   -0.2179    0.0808 H       1  LIG   0.0282   0.0000 
27    H8       0.4093    2.7154   -0.5414 H       1  LIG   0.0490   0.0000 
28    H9      -0.9979    1.8270    0.0085 H       1  LIG   0.0479   0.0000 
29    H10      0.0612    1.4367    2.2077 H       1  LIG   0.0337   0.0000 
30    H11      2.1279    2.6265    2.8631 H       1  LIG   0.0656   0.0000 
31    H12      2.0090    4.6224    1.3959 H       1  LIG   0.0763   0.0000 
32    H13      3.5750    3.8373    1.2983 H       1  LIG  -0.0019   0.0000 
33    H14      2.4179    3.6339   -0.0162 H       1  LIG   0.0221   0.0000 
34    H15      3.7575    0.2144   -1.8137 H       1  LIG   0.1402   0.1500 
35    H16      4.9078   -1.7959   -2.6403 H       1  LIG   0.1374   0.1500 
36    H17      3.1831   -4.0964    0.5835 H       1  LIG   0.1263   0.1500 
37    H18      2.0448   -2.1035    1.3973 H       1  LIG   0.1395   0.1500 
38    H19      5.3183   -6.1164   -1.5790 H       1  LIG   0.0530   0.0000 
39    H20      5.1013   -5.3647    0.0060 H       1  LIG   0.0287   0.0000 
40    H21      3.6757   -5.7569   -1.0341 H       1  LIG   0.0284   0.0000 
41    O3      -0.2014    3.8279    3.2796 O.co2   1  LIG  -0.8488  -0.9000 
@<TRIPOS>BOND
1     1     2     1
2     1     20    1
3     1     21    1
4     1     22    1
5     2     3     1
6     2     23    1
7     2     24    1
8     3     8     1
9     3     4     2
10    4     5     1
11    4     12    1
12    5     6     1
13    5     25    1
14    5     26    1
15    6     7     1
16    6     27    1
17    6     28    1
18    7     8     1
19    7     10    1
20    7     29    1
21    8     9     1
22    8     30    1
23    9     31    1
24    9     32    1
25    9     33    1
26    10    11    2
27    10    41    1
28    12    17    ar
29    12    13    ar
30    13    14    ar
31    13    34    1
32    14    15    ar
33    14    35    1
34    15    16    ar
35    15    18    1
36    16    17    ar
37    16    36    1
38    17    37    1
39    18    19    1
40    19    38    1
41    19    39    1
42    19    40    1
@<TRIPOS>SUBSTRUCTURE
1   LIG    1    
 
########## Number      : 17
########## Name        : ZINC00000122
########## Description : AM1BCC_CHARGES =   0.9998 ORIGINAL_CHARGES =   1.0000

@<TRIPOS>MOLECULE
ZINC00000122
40    41    1     0     0    
SMALL
USER_CHARGES
****
****
@<TRIPOS>ATOM
1     C1       7.7151   -9.0396    0.3140 C.3     1  LIG   0.0826   0.5030 
2     C2       5.5955   -9.8609    1.3045 C.3     1  LIG   0.0824   0.5030 
3     C3       6.3065   -7.4597    1.6297 C.3     1  LIG   0.0492   0.5030 
4     C4       4.9211   -6.8239    1.7007 C.3     1  LIG   0.1200   0.2800 
5     O1       4.9070   -5.7012    2.5831 O.3     1  LIG  -0.3568  -0.5600 
6     C5       5.5108   -4.5156    2.0562 C.3     1  LIG   0.1419   0.5670 
7     C6       4.5493   -3.3582    2.2828 C.ar    1  LIG  -0.1204  -0.1435 
8     C7       4.2127   -2.5025    1.2225 C.ar    1  LIG  -0.1126  -0.1500 
9     C8       3.3404   -1.4304    1.4221 C.ar    1  LIG  -0.1245  -0.1500 
10    C9       2.7995   -1.2048    2.6865 C.ar    1  LIG   0.0353   0.1770 
11    C10      3.1238   -2.0413    3.7524 C.ar    1  LIG  -0.1246  -0.1500 
12    C11      3.9961   -3.1124    3.5504 C.ar    1  LIG  -0.0761  -0.1500 
13    Cl1      1.7243    0.1172    2.9331 Cl      1  LIG  -0.0640  -0.1770 
14    C12      6.8520   -4.2811    2.7313 C.ar    1  LIG   0.3505   0.1665 
15    C13      7.8073   -3.4798    2.1054 C.ar    1  LIG  -0.2349  -0.1500 
16    C14      9.0245   -3.2647    2.7448 C.ar    1  LIG  -0.0852  -0.1500 
17    C15      9.2622   -3.8430    3.9844 C.ar    1  LIG  -0.2262  -0.1500 
18    C16      8.2602   -4.6198    4.5377 C.ar    1  LIG   0.3927   0.1600 
19    N1       7.0675   -4.8508    3.9449 N.ar    1  LIG  -0.6630  -0.6200 
20    H1       8.1607   -8.1768   -0.1881 H       1  LIG   0.1038   0.0000 
21    H2       8.2790   -9.3077    1.2115 H       1  LIG   0.1101   0.0000 
22    H3       7.6579   -9.8812   -0.3813 H       1  LIG   0.1039   0.0000 
23    H4       4.5443   -9.6021    1.4438 H       1  LIG   0.1074   0.0000 
24    H5       5.6718  -10.6861    0.5911 H       1  LIG   0.1023   0.0000 
25    H6       6.0687  -10.1225    2.2546 H       1  LIG   0.1100   0.0000 
26    H7       6.6680   -7.7686    2.6171 H       1  LIG   0.1317   0.0000 
27    H8       7.0261   -6.7469    1.2141 H       1  LIG   0.1084   0.0000 
28    H9       4.5540   -6.5314    0.7099 H       1  LIG   0.0467   0.0000 
29    H10      4.1997   -7.5353    2.1127 H       1  LIG   0.0882   0.0000 
30    H11      5.6727   -4.6076    0.9688 H       1  LIG   0.0460   0.0000 
31    H12      4.6282   -2.6628    0.2305 H       1  LIG   0.1291   0.1500 
32    H13      3.0932   -0.7812    0.5864 H       1  LIG   0.1572   0.1500 
33    H14      2.7078   -1.8716    4.7419 H       1  LIG   0.1597   0.1500 
34    H15      4.2432   -3.7566    4.3914 H       1  LIG   0.1575   0.1500 
35    H16      7.6160   -3.0255    1.1383 H       1  LIG   0.1491   0.1500 
36    H17      9.7839   -2.6448    2.2772 H       1  LIG   0.1549   0.1500 
37    H18     10.2014   -3.6887    4.5029 H       1  LIG   0.1605   0.1500 
38    H19      8.3930   -5.0925    5.5055 H       1  LIG   0.0337   0.1500 
39    N2       6.3114   -8.6712    0.7216 N.4     1  LIG  -0.6731  -0.9590 
40    H20      5.8183   -8.4136   -0.1441 H       1  LIG   0.4464   0.4500 
@<TRIPOS>BOND
1     1     20    1
2     1     21    1
3     1     22    1
4     1     39    1
5     2     23    1
6     2     24    1
7     2     25    1
8     2     39    1
9     3     4     1
10    3     26    1
11    3     27    1
12    3     39    1
13    4     5     1
14    4     28    1
15    4     29    1
16    5     6     1
17    6     7     1
18    6     14    1
19    6     30    1
20    7     12    ar
21    7     8     ar
22    8     9     ar
23    8     31    1
24    9     10    ar
25    9     32    1
26    10    11    ar
27    10    13    1
28    11    12    ar
29    11    33    1
30    12    34    1
31    14    19    ar
32    14    15    ar
33    15    16    ar
34    15    35    1
35    16    17    ar
36    16    36    1
37    17    18    ar
38    17    37    1
39    18    19    ar
40    18    38    1
41    39    40    1
@<TRIPOS>SUBSTRUCTURE
1   LIG    1    
 
########## Number      : 18
########## Name        : ZINC00000133
########## Description : AM1BCC_CHARGES =  -0.0000 ORIGINAL_CHARGES =  -0.0000

@<TRIPOS>MOLECULE
ZINC00000133
29    30    1     0     0    
SMALL
USER_CHARGES
****
****
@<TRIPOS>ATOM
1     C1       1.5153    6.7634   11.5231 C.3     1  LIG   0.0599   0.3001 
2     N1       1.7490    8.0671   10.9028 N.am    1  LIG  -0.4155  -0.6602 
3     C2       0.7592    8.4654    9.8719 C.3     1  LIG  -0.0087   0.5488 
4     S1       0.7493   10.2117    9.5146 S.o2    1  LIG   1.2952   1.0896 
5     O1       0.1705   10.8922   10.6585 O.2     1  LIG  -0.6279  -0.6500 
6     O2       0.2218   10.4495    8.1847 O.2     1  LIG  -0.6281  -0.6500 
7     C3       2.4770   10.5785    9.4837 C.3     1  LIG  -0.3301   0.1052 
8     C4       3.1141   10.1653   10.7841 C.3     1  LIG  -0.1257   0.0610 
9     C5       2.9577    8.7079   11.1763 C.2     1  LIG   0.6708   0.5690 
10    O3       3.8698    8.1798   11.8219 O.2     1  LIG  -0.6091  -0.5700 
11    C6       0.9363    7.6966    8.5599 C.ar    1  LIG  -0.1211  -0.1435 
12    C7       2.1962    7.3637    8.0373 C.ar    1  LIG  -0.1122  -0.1500 
13    C8       2.3108    6.6669    6.8315 C.ar    1  LIG  -0.1221  -0.1500 
14    C9       1.1642    6.2958    6.1336 C.ar    1  LIG   0.0297   0.1770 
15    C10     -0.0961    6.6150    6.6312 C.ar    1  LIG  -0.1181  -0.1500 
16    C11     -0.2073    7.3109    7.8367 C.ar    1  LIG  -0.0873  -0.1500 
17    Cl1      1.3063    5.4380    4.6479 Cl      1  LIG  -0.0815  -0.1770 
18    H1       0.4852    6.7182   11.8884 H       1  LIG   0.0473   0.0000 
19    H2       1.6789    5.9774   10.7807 H       1  LIG   0.0349   0.0000 
20    H3       2.1880    6.5926   12.3680 H       1  LIG   0.0815   0.0000 
21    H4      -0.2258    8.1540   10.2680 H       1  LIG   0.1171   0.0000 
22    H5       2.9232   10.0674    8.6275 H       1  LIG   0.1291   0.0000 
23    H6       2.5781   11.6568    9.3266 H       1  LIG   0.1317   0.0000 
24    H7       4.1876   10.3824   10.7296 H       1  LIG   0.0964   0.0000 
25    H8       2.7087   10.7588   11.6126 H       1  LIG   0.1010   0.0000 
26    H9       3.1089    7.6360    8.5597 H       1  LIG   0.1408   0.1500 
27    H10      3.2987    6.4211    6.4507 H       1  LIG   0.1533   0.1500 
28    H11     -0.9970    6.3318    6.0936 H       1  LIG   0.1548   0.1500 
29    H12     -1.2000    7.5571    8.2079 H       1  LIG   0.1439   0.1500 
@<TRIPOS>BOND
1     1     2     1
2     1     18    1
3     1     19    1
4     1     20    1
5     2     9     am
6     2     3     1
7     3     4     1
8     3     11    1
9     3     21    1
10    4     5     2
11    4     6     2
12    4     7     1
13    7     8     1
14    7     22    1
15    7     23    1
16    8     9     1
17    8     24    1
18    8     25    1
19    9     10    2
20    11    16    ar
21    11    12    ar
22    12    13    ar
23    12    26    1
24    13    14    ar
25    13    27    1
26    14    15    ar
27    14    17    1
28    15    16    ar
29    15    28    1
30    16    29    1
@<TRIPOS>SUBSTRUCTURE
1   LIG    1    
 
########## Number      : 19
########## Name        : ZINC00000138
########## Description : AM1BCC_CHARGES =   0.0000 ORIGINAL_CHARGES =   0.0000

@<TRIPOS>MOLECULE
ZINC00000138
24    25    1     0     0    
SMALL
USER_CHARGES
****
****
@<TRIPOS>ATOM
1     C1       3.7263   -8.1520   -1.3815 C.ar    1  LIG  -0.1695  -0.1500 
2     C2       3.1847   -7.3423   -2.3823 C.ar    1  LIG  -0.0764  -0.1500 
3     C3       2.5473   -6.1462   -2.0494 C.ar    1  LIG  -0.1616  -0.1500 
4     C4       2.4674   -5.7550   -0.7143 C.ar    1  LIG   0.1503   0.0825 
5     C5       2.9947   -6.5733    0.2868 C.ar    1  LIG  -0.2095   0.0862 
6     C6       3.6272   -7.7739   -0.0418 C.ar    1  LIG  -0.0396  -0.1500 
7     C7       2.8110   -6.1732    1.6940 C.2     1  LIG   0.7244   0.5438 
8     O1       3.0569   -6.9378    2.6183 O.2     1  LIG  -0.6191  -0.5700 
9     N1       2.3191   -4.8970    1.8559 N.am    1  LIG  -0.6048  -0.7301 
10    C8       2.3016   -3.9527    0.7544 C.3     1  LIG   0.3099   0.5801 
11    O2       1.8127   -4.5854   -0.4324 O.3     1  LIG  -0.3392  -0.3625 
12    C9       1.3923   -2.7509    1.0482 C.3     1  LIG  -0.1075   0.0000 
13    C10      1.9373   -1.8517    2.1507 C.3     1  LIG   0.0309   0.2900 
14    Cl1      0.8654   -0.4512    2.3917 Cl      1  LIG  -0.1781  -0.2900 
15    H1       2.1833   -4.5697    2.8064 H       1  LIG   0.3285   0.3700 
16    H2       4.2173   -9.0844   -1.6463 H       1  LIG   0.1418   0.1500 
17    H3       3.2563   -7.6467   -3.4228 H       1  LIG   0.1393   0.1500 
18    H4       2.1229   -5.5244   -2.8326 H       1  LIG   0.1542   0.1500 
19    H5       4.0368   -8.4225    0.7275 H       1  LIG   0.1601   0.1500 
20    H6       3.3300   -3.5834    0.6043 H       1  LIG   0.0598   0.0000 
21    H7       1.2716   -2.1683    0.1252 H       1  LIG   0.0885   0.0000 
22    H8       0.3876   -3.1074    1.3120 H       1  LIG   0.0787   0.0000 
23    H9       2.0050   -2.3764    3.1072 H       1  LIG   0.0673   0.0000 
24    H10      2.9286   -1.4678    1.8921 H       1  LIG   0.0716   0.0000 
@<TRIPOS>BOND
1     1     6     ar
2     1     2     ar
3     1     16    1
4     2     3     ar
5     2     17    1
6     3     4     ar
7     3     18    1
8     4     11    1
9     4     5     ar
10    5     6     ar
11    5     7     1
12    6     19    1
13    7     8     2
14    7     9     am
15    9     10    1
16    9     15    1
17    10    11    1
18    10    12    1
19    10    20    1
20    12    13    1
21    12    21    1
22    12    22    1
23    13    14    1
24    13    23    1
25    13    24    1
@<TRIPOS>SUBSTRUCTURE
1   LIG    1    
 
########## Number      : 20
########## Name        : ZINC00000158
########## Description : AM1BCC_CHARGES =   1.0000 ORIGINAL_CHARGES =   1.0000

@<TRIPOS>MOLECULE
ZINC00000158
45    45    1     0     0    
SMALL
USER_CHARGES
****
****
@<TRIPOS>ATOM
1     C1       4.3569   -9.2813    2.0376 C.3     1  LIG  -0.1345   0.0000 
2     C2       5.5877   -9.0966    1.1682 C.3     1  LIG   0.1136   0.5030 
3     C3       7.3386   -7.3513    0.6931 C.3     1  LIG   0.1098   0.5030 
4     C4       8.0950   -7.2790    2.0069 C.3     1  LIG  -0.1335   0.0000 
5     C5       4.9866   -7.0338   -0.1552 C.3     1  LIG   0.0925   0.5030 
6     C6       4.7469   -5.5457    0.0929 C.3     1  LIG   0.1136   0.2800 
7     O1       3.9014   -5.4109    1.2389 O.3     1  LIG  -0.3540  -0.3625 
8     C7       3.9804   -4.2318    1.9429 C.ar    1  LIG   0.0487   0.0825 
9     C8       3.8352   -4.3562    3.3435 C.ar    1  LIG  -0.0590  -0.1435 
10    C9       3.8984   -3.2059    4.1454 C.ar    1  LIG  -0.1295  -0.1500 
11    C10      4.0810   -1.9530    3.5728 C.ar    1  LIG  -0.0912  -0.1500 
12    C11      4.1848   -1.8266    2.1892 C.ar    1  LIG  -0.1712  -0.1500 
13    C12      4.1212   -2.9544    1.3592 C.ar    1  LIG   0.0957   0.0825 
14    O2       4.1468   -2.8809   -0.0090 O.3     1  LIG  -0.3575  -0.3625 
15    C13      4.2999   -1.6002   -0.6085 C.3     1  LIG   0.1141   0.2800 
16    C14      3.6304   -5.6927    4.0271 C.3     1  LIG  -0.0079   0.2817 
17    C15      4.8786   -6.1970    4.6918 C.2     1  LIG  -0.1987  -0.2882 
18    C16      4.9730   -6.4669    5.9990 C.2     1  LIG  -0.1832  -0.3000 
19    H1       4.1686  -10.3483    2.1940 H       1  LIG   0.0954   0.0000 
20    H2       4.4991   -8.8213    3.0202 H       1  LIG   0.0707   0.0000 
21    H3       3.4605   -8.8487    1.5849 H       1  LIG   0.0706   0.0000 
22    H4       6.4546   -9.5335    1.6723 H       1  LIG   0.0984   0.0000 
23    H5       5.4773   -9.5671    0.1855 H       1  LIG   0.0985   0.0000 
24    H6       7.7148   -8.1457    0.0399 H       1  LIG   0.0995   0.0000 
25    H7       7.4295   -6.3951    0.1696 H       1  LIG   0.0998   0.0000 
26    H8       9.1572   -7.0955    1.8155 H       1  LIG   0.0972   0.0000 
27    H9       7.7228   -6.4580    2.6277 H       1  LIG   0.0688   0.0000 
28    H10      8.0155   -8.2056    2.5821 H       1  LIG   0.0648   0.0000 
29    H11      5.4911   -7.2194   -1.1091 H       1  LIG   0.1049   0.0000 
30    H12      4.0332   -7.5701   -0.1407 H       1  LIG   0.1159   0.0000 
31    H13      5.6941   -5.0114    0.2249 H       1  LIG   0.0723   0.0000 
32    H14      4.2189   -5.1488   -0.7806 H       1  LIG   0.1072   0.0000 
33    H15      3.8023   -3.2835    5.2261 H       1  LIG   0.1522   0.1500 
34    H16      4.1274   -1.0695    4.2035 H       1  LIG   0.1536   0.1500 
35    H17      4.3011   -0.8240    1.7890 H       1  LIG   0.1547   0.1500 
36    H18      4.3175   -1.7410   -1.6936 H       1  LIG   0.0731   0.0000 
37    H19      3.4514   -0.9499   -0.3725 H       1  LIG   0.0528   0.0000 
38    H20      5.2497   -1.1389   -0.3188 H       1  LIG   0.0417   0.0000 
39    H21      2.8121   -5.5893    4.7522 H       1  LIG   0.0761   0.0000 
40    H22      3.2836   -6.4485    3.3136 H       1  LIG   0.0498   0.0000 
41    H23      5.7523   -6.3564    4.0675 H       1  LIG   0.0898   0.1500 
42    H24      5.9036   -6.8320    6.4203 H       1  LIG   0.1229   0.1500 
43    H25      4.1321   -6.3293    6.6701 H       1  LIG   0.1294   0.1500 
44    N1       5.8628   -7.6174    0.9483 N.4     1  LIG  -0.6922  -0.9590 
45    H26      5.6060   -7.1264    1.8156 H       1  LIG   0.4643   0.4500 
@<TRIPOS>BOND
1     1     2     1
2     1     19    1
3     1     20    1
4     1     21    1
5     2     22    1
6     2     23    1
7     2     44    1
8     3     4     1
9     3     24    1
10    3     25    1
11    3     44    1
12    4     26    1
13    4     27    1
14    4     28    1
15    5     6     1
16    5     29    1
17    5     30    1
18    5     44    1
19    6     7     1
20    6     31    1
21    6     32    1
22    7     8     1
23    8     13    ar
24    8     9     ar
25    9     10    ar
26    9     16    1
27    10    11    ar
28    10    33    1
29    11    12    ar
30    11    34    1
31    12    13    ar
32    12    35    1
33    13    14    1
34    14    15    1
35    15    36    1
36    15    37    1
37    15    38    1
38    16    17    1
39    16    39    1
40    16    40    1
41    17    18    2
42    17    41    1
43    18    42    1
44    18    43    1
45    44    45    1
@<TRIPOS>SUBSTRUCTURE
1   LIG    1    
 
########## Number      : 21
########## Name        : ZINC00000179
########## Description : AM1BCC_CHARGES =   1.0000 ORIGINAL_CHARGES =   1.0000

@<TRIPOS>MOLECULE
ZINC00000179
43    45    1     0     0    
SMALL
USER_CHARGES
****
****
@<TRIPOS>ATOM
1     C1      -3.4569    4.3978   -2.5799 C.3     1  LIG   0.0823   0.5030 
2     C2      -1.6994    2.6617   -2.7991 C.3     1  LIG   0.0806   0.5030 
3     C3      -2.5469    3.3327   -0.5145 C.3     1  LIG   0.0985   0.5030 
4     C4      -2.3812    1.9770    0.1809 C.3     1  LIG  -0.0920   0.0000 
5     C5      -2.1935    2.1171    1.7251 C.3     1  LIG  -0.0460   0.2870 
6     C6      -0.9081    2.8242    2.1515 C.ar    1  LIG  -0.1006  -0.1435 
7     C7       0.2415    2.8942    1.3493 C.ar    1  LIG  -0.1314  -0.1500 
8     C8       1.3901    3.5516    1.7961 C.ar    1  LIG  -0.1233  -0.1500 
9     C9       1.4090    4.1316    3.0605 C.ar    1  LIG   0.0284   0.1770 
10    C10      0.2936    4.0479    3.8901 C.ar    1  LIG  -0.1111  -0.1500 
11    C11     -0.8624    3.3887    3.4470 C.ar    1  LIG  -0.0562  -0.1435 
12    C12     -2.0404    3.2253    4.3759 C.3     1  LIG  -0.0377   0.1435 
13    C13     -2.2196    1.7737    4.8333 C.3     1  LIG  -0.0349   0.1435 
14    C14     -2.3202    0.6493    3.8211 C.ar    1  LIG  -0.1615  -0.1435 
15    C15     -2.2719    0.7626    2.4206 C.ar    1  LIG   0.3998   0.1665 
16    N1      -2.3076   -0.3304    1.6081 N.ar    1  LIG  -0.6956  -0.6200 
17    C16     -2.4106   -1.5519    2.1716 C.ar    1  LIG   0.4047   0.1600 
18    C17     -2.4812   -1.7637    3.5297 C.ar    1  LIG  -0.2229  -0.1500 
19    C18     -2.4325   -0.6487    4.3541 C.ar    1  LIG  -0.0948  -0.1500 
20    Cl1      2.8267    4.9389    3.6104 Cl      1  LIG  -0.0579  -0.1770 
21    H1      -4.3564    4.6543   -2.0141 H       1  LIG   0.1044   0.0000 
22    H2      -2.7109    5.1945   -2.5164 H       1  LIG   0.1067   0.0000 
23    H3      -3.7228    4.1892   -3.6196 H       1  LIG   0.1041   0.0000 
24    H4      -1.3995    1.6783   -2.4324 H       1  LIG   0.1109   0.0000 
25    H5      -2.0223    2.5750   -3.8402 H       1  LIG   0.1021   0.0000 
26    H6      -0.8856    3.3852   -2.7027 H       1  LIG   0.1047   0.0000 
27    H7      -1.6547    3.9629   -0.4568 H       1  LIG   0.1143   0.0000 
28    H8      -3.3919    3.8724   -0.0722 H       1  LIG   0.0999   0.0000 
29    H9      -3.2929    1.3938   -0.0118 H       1  LIG   0.0757   0.0000 
30    H10     -1.5563    1.4070   -0.2598 H       1  LIG   0.0829   0.0000 
31    H11     -3.0520    2.7476    2.0070 H       1  LIG   0.0675   0.0000 
32    H12      0.2726    2.4382    0.3644 H       1  LIG   0.1209   0.1500 
33    H13      2.2626    3.5975    1.1495 H       1  LIG   0.1551   0.1500 
34    H14      0.3238    4.4802    4.8876 H       1  LIG   0.1609   0.1500 
35    H15     -1.9018    3.8535    5.2657 H       1  LIG   0.0665   0.0000 
36    H16     -2.9526    3.6079    3.9047 H       1  LIG   0.0478   0.0000 
37    H17     -1.3710    1.5326    5.4898 H       1  LIG   0.0687   0.0000 
38    H18     -3.1211    1.7380    5.4596 H       1  LIG   0.0650   0.0000 
39    H19     -2.4371   -2.3824    1.4740 H       1  LIG   0.0311   0.1500 
40    H20     -2.5638   -2.7628    3.9409 H       1  LIG   0.1597   0.1500 
41    H21     -2.4726   -0.7931    5.4321 H       1  LIG   0.1509   0.1500 
42    N2      -2.8707    3.1435   -1.9848 N.4     1  LIG  -0.6795  -0.9590 
43    H22     -3.6029    2.4235   -2.0508 H       1  LIG   0.4513   0.4500 
@<TRIPOS>BOND
1     1     21    1
2     1     22    1
3     1     23    1
4     1     42    1
5     2     24    1
6     2     25    1
7     2     26    1
8     2     42    1
9     3     4     1
10    3     27    1
11    3     28    1
12    3     42    1
13    4     5     1
14    4     29    1
15    4     30    1
16    5     15    1
17    5     6     1
18    5     31    1
19    6     11    ar
20    6     7     ar
21    7     8     ar
22    7     32    1
23    8     9     ar
24    8     33    1
25    9     10    ar
26    9     20    1
27    10    11    ar
28    10    34    1
29    11    12    1
30    12    13    1
31    12    35    1
32    12    36    1
33    13    14    1
34    13    37    1
35    13    38    1
36    14    19    ar
37    14    15    ar
38    15    16    ar
39    16    17    ar
40    17    18    ar
41    17    39    1
42    18    19    ar
43    18    40    1
44    19    41    1
45    42    43    1
@<TRIPOS>SUBSTRUCTURE
1   LIG    1    
 
########## Number      : 22
########## Name        : ZINC00000181
########## Description : AM1BCC_CHARGES =   0.9997 ORIGINAL_CHARGES =   1.0000

@<TRIPOS>MOLECULE
ZINC00000181
48    51    1     0     0    
SMALL
USER_CHARGES
****
****
@<TRIPOS>ATOM
1     C1       3.3570   -4.7554   -4.0975 C.3     1  LIG   0.0860   0.5030 
2     C2       4.0299   -2.3691   -3.9127 C.3     1  LIG   0.1144   0.5030 
3     C3       4.9337   -1.3935   -3.1717 C.3     1  LIG  -0.1010   0.0000 
4     C4       4.9058   -1.5792   -1.6266 C.3     1  LIG   0.0290   0.1435 
5     C5       4.7811   -0.1942   -0.9352 C.3     1  LIG  -0.1786   0.0610 
6     C6       3.4289    0.4738   -1.1554 C.2     1  LIG   0.5448   0.4946 
7     O1       3.3208    1.6992   -1.1097 O.2     1  LIG  -0.4805  -0.5700 
8     C7       2.2275   -0.3784   -1.3959 C.2     1  LIG   0.0361   0.0911 
9     C8       2.3648   -1.7106   -1.4277 C.2     1  LIG  -0.2101  -0.2882 
10    C9       3.6812   -2.4037   -1.1766 C.3     1  LIG  -0.0426   0.1382 
11    C10      3.7577   -3.7880   -1.8312 C.3     1  LIG   0.1412   0.5030 
12    C11      4.8671   -4.5469   -1.0800 C.3     1  LIG  -0.0548   0.1435 
13    C12      6.1414   -3.7333   -0.9399 C.ar    1  LIG  -0.1295  -0.1435 
14    C13      6.1950   -2.3373   -1.1979 C.ar    1  LIG  -0.1128  -0.1435 
15    C14      7.4610   -1.7205   -1.1127 C.ar    1  LIG   0.1279   0.0825 
16    C15      8.6148   -2.4181   -0.7088 C.ar    1  LIG   0.0759   0.0825 
17    C16      8.5191   -3.7713   -0.4033 C.ar    1  LIG  -0.1497  -0.1500 
18    C17      7.2943   -4.4230   -0.5269 C.ar    1  LIG  -0.1113  -0.1500 
19    O2       9.7673   -1.6747   -0.6607 O.3     1  LIG  -0.3405  -0.3625 
20    C18     10.9528   -2.3459   -0.2498 C.3     1  LIG   0.1164   0.2800 
21    O3       7.6025   -0.4037   -1.4717 O.3     1  LIG  -0.5037  -0.5325 
22    O4       1.0103    0.2226   -1.6445 O.3     1  LIG  -0.3363  -0.3567 
23    C19      0.4014    0.6611   -0.4316 C.3     1  LIG   0.1097   0.2800 
24    H1       8.5380   -0.1614   -1.3491 H       1  LIG   0.4592   0.4500 
25    H2       3.7195   -4.7482   -5.1288 H       1  LIG   0.1013   0.0000 
26    H3       3.5319   -5.7366   -3.6485 H       1  LIG   0.0989   0.0000 
27    H4       2.2996   -4.4808   -4.0527 H       1  LIG   0.1036   0.0000 
28    H5       4.3445   -2.4392   -4.9604 H       1  LIG   0.0963   0.0000 
29    H6       2.9754   -2.0780   -3.9043 H       1  LIG   0.1111   0.0000 
30    H7       5.9555   -1.4992   -3.5593 H       1  LIG   0.0904   0.0000 
31    H8       4.6276   -0.3799   -3.4592 H       1  LIG   0.1017   0.0000 
32    H9       4.9345   -0.2791    0.1478 H       1  LIG   0.0965   0.0000 
33    H10      5.5190    0.5120   -1.3269 H       1  LIG   0.1198   0.0000 
34    H11      1.4822   -2.3245   -1.5905 H       1  LIG   0.1531   0.1500 
35    H12      3.6853   -2.5002   -0.0729 H       1  LIG   0.1115   0.0000 
36    H13      2.8152   -4.3521   -1.7268 H       1  LIG   0.1073   0.0000 
37    H14      4.5144   -4.7949   -0.0704 H       1  LIG   0.1032   0.0000 
38    H15      5.0833   -5.4931   -1.5918 H       1  LIG   0.0679   0.0000 
39    H16      9.3768   -4.3547   -0.0845 H       1  LIG   0.1623   0.1500 
40    H17      7.2429   -5.4874   -0.3057 H       1  LIG   0.1488   0.1500 
41    H18     11.7691   -1.6173   -0.2607 H       1  LIG   0.0875   0.0000 
42    H19     10.8580   -2.7240    0.7734 H       1  LIG   0.0479   0.0000 
43    H20     11.2138   -3.1483   -0.9476 H       1  LIG   0.0446   0.0000 
44    H21     -0.5803    1.0757   -0.6792 H       1  LIG   0.0799   0.0000 
45    H22      0.2527   -0.1773    0.2579 H       1  LIG   0.0348   0.0000 
46    H23      0.9894    1.4481    0.0509 H       1  LIG   0.0690   0.0000 
47    N1       4.1554   -3.7341   -3.3179 N.4     1  LIG  -0.6799  -0.9590 
48    H24      5.1385   -4.0391   -3.4374 H       1  LIG   0.4530   0.4500 
@<TRIPOS>BOND
1     1     25    1
2     1     26    1
3     1     27    1
4     1     47    1
5     2     3     1
6     2     28    1
7     2     29    1
8     2     47    1
9     3     4     1
10    3     30    1
11    3     31    1
12    4     10    1
13    4     14    1
14    4     5     1
15    5     6     1
16    5     32    1
17    5     33    1
18    6     7     2
19    6     8     1
20    8     9     2
21    8     22    1
22    9     10    1
23    9     34    1
24    10    11    1
25    10    35    1
26    11    12    1
27    11    36    1
28    11    47    1
29    12    13    1
30    12    37    1
31    12    38    1
32    13    18    ar
33    13    14    ar
34    14    15    ar
35    15    16    ar
36    15    21    1
37    16    17    ar
38    16    19    1
39    17    18    ar
40    17    39    1
41    18    40    1
42    19    20    1
43    20    41    1
44    20    42    1
45    20    43    1
46    21    24    1
47    22    23    1
48    23    44    1
49    23    45    1
50    23    46    1
51    47    48    1
@<TRIPOS>SUBSTRUCTURE
1   LIG    1    
 
########## Number      : 23
########## Name        : ZINC00000185
########## Description : AM1BCC_CHARGES =   0.0002 ORIGINAL_CHARGES =   0.0000

@<TRIPOS>MOLECULE
ZINC00000185
55    58    1     0     0    
SMALL
USER_CHARGES
****
****
@<TRIPOS>ATOM
1     C1       2.3855   -7.8050    3.1263 C.3     1  LIG  -0.0862   0.0000 
2     C2       3.2890   -6.8252    3.9059 C.3     1  LIG  -0.0087   0.1382 
3     C3       4.5671   -7.5932    4.3597 C.3     1  LIG  -0.0712   0.0000 
4     C4       5.5363   -7.8789    3.2217 C.3     1  LIG  -0.1815   0.0610 
5     C5       5.8965   -6.6094    2.4963 C.2     1  LIG   0.5702   0.4946 
6     O1       6.9858   -6.4646    1.9449 O.2     1  LIG  -0.5389  -0.5700 
7     C6       4.8711   -5.5467    2.3860 C.2     1  LIG  -0.2683  -0.1356 
8     C7       3.6746   -5.6547    2.9884 C.2     1  LIG  -0.0268  -0.2764 
9     C8       2.6369   -4.5677    2.7705 C.3     1  LIG  -0.0552   0.1382 
10    C9       1.9464   -4.0951    4.0586 C.3     1  LIG  -0.0714   0.0000 
11    C10      1.3984   -5.3079    4.8203 C.3     1  LIG  -0.0430   0.0000 
12    C11      2.6103   -6.2174    5.1900 C.3     1  LIG  -0.0446   0.0000 
13    C12      2.1640   -7.2670    6.2318 C.3     1  LIG   0.1540   0.2800 
14    C13      1.7852   -6.5673    7.5730 C.3     1  LIG  -0.1062   0.0000 
15    C14      1.1766   -5.1393    7.4100 C.3     1  LIG  -0.0292   0.0000 
16    C15      0.4874   -5.0455    6.0391 C.3     1  LIG  -0.0665   0.0000 
17    C16     -0.3038   -3.7423    6.1336 C.3     1  LIG  -0.0695   0.0000 
18    C17     -0.7870   -3.7107    7.6026 C.3     1  LIG  -0.0698   0.0000 
19    C18      0.0452   -4.7692    8.3906 C.3     1  LIG  -0.1620   0.0610 
20    C19     -0.8400   -5.9632    8.7557 C.2     1  LIG   0.5361   0.4480 
21    O2      -1.6137   -6.4893    7.9561 O.2     1  LIG  -0.5275  -0.5700 
22    C20     -0.7227   -6.4609   10.1872 C.3     1  LIG   0.0273   0.3410 
23    O3      -1.4391   -7.6646   10.3700 O.3     1  LIG  -0.5902  -0.6800 
24    C21      2.3136   -4.0925    7.6109 C.3     1  LIG  -0.0896   0.0000 
25    O4       1.0351   -7.9777    5.7438 O.3     1  LIG  -0.5981  -0.6800 
26    H1      -2.3649   -7.4920   10.1257 H       1  LIG   0.4201   0.4000 
27    H2       0.7748   -8.6254    6.4205 H       1  LIG   0.4051   0.4000 
28    H3       2.2145   -8.7315    3.6835 H       1  LIG   0.0658   0.0000 
29    H4       1.4106   -7.3777    2.8773 H       1  LIG   0.0415   0.0000 
30    H5       2.8445   -8.0940    2.1731 H       1  LIG   0.0332   0.0000 
31    H6       5.1003   -7.0037    5.1188 H       1  LIG   0.0450   0.0000 
32    H7       4.3040   -8.5462    4.8333 H       1  LIG   0.0516   0.0000 
33    H8       6.4533   -8.3143    3.6343 H       1  LIG   0.0722   0.0000 
34    H9       5.1185   -8.5882    2.5006 H       1  LIG   0.0735   0.0000 
35    H10      5.1230   -4.6993    1.7571 H       1  LIG   0.1465   0.1500 
36    H11      3.0779   -3.6937    2.2753 H       1  LIG   0.0533   0.0000 
37    H12      1.8760   -4.9580    2.0820 H       1  LIG   0.0599   0.0000 
38    H13      2.6493   -3.5251    4.6766 H       1  LIG   0.0454   0.0000 
39    H14      1.1329   -3.4147    3.7830 H       1  LIG   0.0480   0.0000 
40    H15      0.7265   -5.7923    4.0895 H       1  LIG   0.0681   0.0000 
41    H16      3.3743   -5.5712    5.6514 H       1  LIG   0.0546   0.0000 
42    H17      2.9719   -7.9724    6.4671 H       1  LIG   0.0344   0.0000 
43    H18      1.1157   -7.2380    8.1174 H       1  LIG   0.0476   0.0000 
44    H19      2.6911   -6.4963    8.1895 H       1  LIG   0.0511   0.0000 
45    H20     -0.2983   -5.8177    5.9292 H       1  LIG   0.0809   0.0000 
46    H21      0.3170   -2.8639    5.9299 H       1  LIG   0.0425   0.0000 
47    H22     -1.1466   -3.7214    5.4351 H       1  LIG   0.0532   0.0000 
48    H23     -0.6198   -2.7095    8.0167 H       1  LIG   0.0452   0.0000 
49    H24     -1.8639   -3.9047    7.6583 H       1  LIG   0.0568   0.0000 
50    H25      0.3951   -4.2988    9.3239 H       1  LIG   0.0650   0.0000 
51    H26      0.3285   -6.6495   10.4201 H       1  LIG   0.0843   0.0000 
52    H27     -1.1186   -5.7020   10.8676 H       1  LIG   0.0533   0.0000 
53    H28      2.7164   -4.1744    8.6284 H       1  LIG   0.0323   0.0000 
54    H29      3.1610   -4.1901    6.9377 H       1  LIG   0.0459   0.0000 
55    H30      1.9498   -3.0649    7.5070 H       1  LIG   0.0407   0.0000 
@<TRIPOS>BOND
1     1     2     1
2     1     28    1
3     1     29    1
4     1     30    1
5     2     8     1
6     2     12    1
7     2     3     1
8     3     4     1
9     3     31    1
10    3     32    1
11    4     5     1
12    4     33    1
13    4     34    1
14    5     6     2
15    5     7     1
16    7     8     2
17    7     35    1
18    8     9     1
19    9     10    1
20    9     36    1
21    9     37    1
22    10    11    1
23    10    38    1
24    10    39    1
25    11    16    1
26    11    12    1
27    11    40    1
28    12    13    1
29    12    41    1
30    13    14    1
31    13    25    1
32    13    42    1
33    14    15    1
34    14    43    1
35    14    44    1
36    15    19    1
37    15    16    1
38    15    24    1
39    16    17    1
40    16    45    1
41    17    18    1
42    17    46    1
43    17    47    1
44    18    19    1
45    18    48    1
46    18    49    1
47    19    20    1
48    19    50    1
49    20    21    2
50    20    22    1
51    22    23    1
52    22    51    1
53    22    52    1
54    23    26    1
55    24    53    1
56    24    54    1
57    24    55    1
58    25    27    1
@<TRIPOS>SUBSTRUCTURE
1   LIG    1    
 
########## Number      : 24
########## Name        : ZINC00000197
########## Description : AM1BCC_CHARGES =  -0.0000 ORIGINAL_CHARGES =   0.0000

@<TRIPOS>MOLECULE
ZINC00000197
29    29    1     0     0    
SMALL
USER_CHARGES
****
****
@<TRIPOS>ATOM
1     C1       4.1137   -2.5596    3.8749 C.3     1  LIG  -0.1466   0.0000 
2     C2       5.1519   -2.0619    2.8631 C.3     1  LIG   0.2072   0.2700 
3     N1       4.9394   -2.6680    1.5495 N.pl3   1  LIG  -1.0035  -0.8979 
4     P1       5.0964   -4.3290    1.5474 P.3     1  LIG   1.6418   1.5070 
5     O1       6.5071   -4.7728    1.2115 O.2     1  LIG  -0.8092  -0.7000 
6     O2       4.7439   -4.7771    3.0677 O.3     1  LIG  -0.5623  -0.5512 
7     C3       3.7232   -4.0350    3.7236 C.3     1  LIG   0.1739   0.2800 
8     N2       3.9788   -4.9621    0.4796 N.pl3   1  LIG  -0.8821  -0.8079 
9     C4       3.8401   -6.4336    0.3886 C.3     1  LIG   0.2108   0.2700 
10    C5       3.3739   -7.0828    1.6880 C.3     1  LIG   0.0053   0.2900 
11    Cl1      2.9997   -8.8057    1.4176 Cl      1  LIG  -0.1782  -0.2900 
12    C6       3.9792   -4.4029   -0.8916 C.3     1  LIG   0.2120   0.2700 
13    C7       2.5545   -4.1478   -1.3770 C.3     1  LIG   0.0024   0.2900 
14    Cl2      2.5775   -3.4226   -3.0033 Cl      1  LIG  -0.1759  -0.2900 
15    H1       4.0476   -2.3321    1.1886 H       1  LIG   0.4436   0.3600 
16    H2       3.2031   -1.9508    3.8180 H       1  LIG   0.0547   0.0000 
17    H3       4.5201   -2.4013    4.8816 H       1  LIG   0.0682   0.0000 
18    H4       5.1074   -0.9706    2.7845 H       1  LIG   0.0587   0.0000 
19    H5       6.1606   -2.3124    3.2119 H       1  LIG   0.0575   0.0000 
20    H6       3.5361   -4.4847    4.7036 H       1  LIG   0.0703   0.0000 
21    H7       2.7992   -4.1257    3.1416 H       1  LIG   0.0118   0.0000 
22    H8       3.1092   -6.6895   -0.3882 H       1  LIG   0.0699   0.0000 
23    H9       4.7980   -6.8705    0.0793 H       1  LIG   0.0749   0.0000 
24    H10      4.1478   -7.0544    2.4571 H       1  LIG   0.0726   0.0000 
25    H11      2.4660   -6.6073    2.0705 H       1  LIG   0.0634   0.0000 
26    H12      4.5168   -3.4478   -0.9051 H       1  LIG   0.0498   0.0000 
27    H13      4.5296   -5.0554   -1.5819 H       1  LIG   0.0713   0.0000 
28    H14      1.9680   -5.0681   -1.4423 H       1  LIG   0.0761   0.0000 
29    H15      2.0322   -3.4506   -0.7142 H       1  LIG   0.0616   0.0000 
@<TRIPOS>BOND
1     1     7     1
2     1     2     1
3     1     16    1
4     1     17    1
5     2     3     1
6     2     18    1
7     2     19    1
8     3     4     1
9     3     15    1
10    4     5     2
11    4     6     1
12    4     8     1
13    6     7     1
14    7     20    1
15    7     21    1
16    8     9     1
17    8     12    1
18    9     10    1
19    9     22    1
20    9     23    1
21    10    11    1
22    10    24    1
23    10    25    1
24    12    13    1
25    12    26    1
26    12    27    1
27    13    14    1
28    13    28    1
29    13    29    1
@<TRIPOS>SUBSTRUCTURE
1   LIG    1    
 
########## Number      : 25
########## Name        : ZINC00000199
########## Description : AM1BCC_CHARGES =   1.0000 ORIGINAL_CHARGES =   1.0000

@<TRIPOS>MOLECULE
ZINC00000199
51    53    1     0     0    
SMALL
USER_CHARGES
****
****
@<TRIPOS>ATOM
1     C1       7.1980    2.6147    3.1283 C.ar    1  LIG  -0.1044  -0.1500 
2     C2       6.6447    1.3837    3.4637 C.ar    1  LIG  -0.1254  -0.1500 
3     C3       5.4381    0.9678    2.8883 C.ar    1  LIG  -0.1353  -0.1500 
4     C4       4.7507    1.7782    1.9719 C.ar    1  LIG  -0.1434  -0.1435 
5     C5       5.3451    3.0146    1.6362 C.ar    1  LIG  -0.1099  -0.1500 
6     C6       6.5492    3.4303    2.2098 C.ar    1  LIG  -0.1140  -0.1500 
7     C7       3.4147    1.3866    1.2843 C.3     1  LIG   0.2316   0.4235 
8     C8       3.0184   -0.1053    1.5396 C.3     1  LIG  -0.1312   0.0000 
9     C9       2.3764   -0.4847    2.8737 C.3     1  LIG   0.1085   0.5030 
10    C10      1.0254   -2.3313    3.8977 C.3     1  LIG   0.1129   0.5030 
11    C11      0.7385   -3.8247    3.8411 C.3     1  LIG  -0.1076   0.0000 
12    C12      1.9841   -4.6509    4.1358 C.3     1  LIG  -0.0980   0.0000 
13    C13      3.1345   -4.2531    3.2195 C.3     1  LIG  -0.1071   0.0000 
14    C14      3.4132   -2.7581    3.2821 C.3     1  LIG   0.1096   0.5030 
15    C15      2.3323    2.4378    1.7026 C.3     1  LIG  -0.0702   0.0000 
16    C16      0.9054    2.1702    1.1775 C.3     1  LIG  -0.0737   0.0000 
17    C17     -0.0472    2.6410    2.2770 C.3     1  LIG  -0.0870   0.0000 
18    C18      0.8027    3.4702    3.2253 C.3     1  LIG  -0.0867   0.0000 
19    C19      2.1566    2.7766    3.1885 C.3     1  LIG  -0.0775   0.0000 
20    O1       3.5935    1.5012   -0.1308 O.3     1  LIG  -0.5929  -0.6800 
21    H1       4.4570    1.1172   -0.3615 H       1  LIG   0.4165   0.4000 
22    H2       8.1347    2.9329    3.5758 H       1  LIG   0.1511   0.1500 
23    H3       7.1548    0.7377    4.1733 H       1  LIG   0.1399   0.1500 
24    H4       5.0729   -0.0102    3.1782 H       1  LIG   0.0990   0.1500 
25    H5       4.8708    3.6731    0.9112 H       1  LIG   0.1525   0.1500 
26    H6       6.9785    4.3894    1.9343 H       1  LIG   0.1525   0.1500 
27    H7       3.8951   -0.7326    1.3347 H       1  LIG   0.0606   0.0000 
28    H8       2.3177   -0.4040    0.7458 H       1  LIG   0.0815   0.0000 
29    H9       1.3859   -0.0297    2.9495 H       1  LIG   0.1183   0.0000 
30    H10      2.9644   -0.2099    3.7522 H       1  LIG   0.1074   0.0000 
31    H11      1.3326   -2.0084    4.8986 H       1  LIG   0.1016   0.0000 
32    H12      0.1424   -1.7653    3.5831 H       1  LIG   0.1010   0.0000 
33    H13     -0.0475   -4.0746    4.5625 H       1  LIG   0.1016   0.0000 
34    H14      0.3535   -4.0873    2.8477 H       1  LIG   0.0704   0.0000 
35    H15      2.2815   -4.5047    5.1814 H       1  LIG   0.0667   0.0000 
36    H16      1.7614   -5.7166    4.0119 H       1  LIG   0.0916   0.0000 
37    H17      4.0371   -4.8063    3.5024 H       1  LIG   0.1010   0.0000 
38    H18      2.8957   -4.5397    2.1876 H       1  LIG   0.0704   0.0000 
39    H19      4.1830   -2.4898    2.5544 H       1  LIG   0.1012   0.0000 
40    H20      3.7318   -2.4445    4.2824 H       1  LIG   0.0998   0.0000 
41    H21      2.6164    3.3858    1.2175 H       1  LIG   0.0871   0.0000 
42    H22      0.7366    2.7410    0.2565 H       1  LIG   0.0725   0.0000 
43    H23      0.7072    1.1231    0.9371 H       1  LIG   0.0152   0.0000 
44    H24     -0.8923    3.2086    1.8761 H       1  LIG   0.0652   0.0000 
45    H25     -0.4536    1.7715    2.8074 H       1  LIG   0.0309   0.0000 
46    H26      0.8927    4.4974    2.8523 H       1  LIG   0.0638   0.0000 
47    H27      0.3822    3.5093    4.2342 H       1  LIG   0.0415   0.0000 
48    H28      2.1363    1.8954    3.8306 H       1  LIG   0.0183   0.0000 
49    H29      2.9453    3.4387    3.5594 H       1  LIG   0.0672   0.0000 
50    N1       2.1515   -1.9915    2.9408 N.4     1  LIG  -0.6884  -0.9590 
51    H30      1.8444   -2.2939    2.0058 H       1  LIG   0.4438   0.4500 
@<TRIPOS>BOND
1     1     6     ar
2     1     2     ar
3     1     22    1
4     2     3     ar
5     2     23    1
6     3     4     ar
7     3     24    1
8     4     5     ar
9     4     7     1
10    5     6     ar
11    5     25    1
12    6     26    1
13    7     8     1
14    7     15    1
15    7     20    1
16    8     9     1
17    8     27    1
18    8     28    1
19    9     29    1
20    9     30    1
21    9     50    1
22    10    11    1
23    10    31    1
24    10    32    1
25    10    50    1
26    11    12    1
27    11    33    1
28    11    34    1
29    12    13    1
30    12    35    1
31    12    36    1
32    13    14    1
33    13    37    1
34    13    38    1
35    14    39    1
36    14    40    1
37    14    50    1
38    15    19    1
39    15    16    1
40    15    41    1
41    16    17    1
42    16    42    1
43    16    43    1
44    17    18    1
45    17    44    1
46    17    45    1
47    18    19    1
48    18    46    1
49    18    47    1
50    19    48    1
51    19    49    1
52    20    21    1
53    50    51    1
@<TRIPOS>SUBSTRUCTURE
1   LIG    1    
 
########## Number      : 26
########## Name        : ZINC00000204
########## Description : AM1BCC_CHARGES =  -0.0001 ORIGINAL_CHARGES =   0.0000

@<TRIPOS>MOLECULE
ZINC00000204
20    20    1     0     0    
SMALL
USER_CHARGES
****
****
@<TRIPOS>ATOM
1     C1       5.4602   -9.5655   -1.4844 C.3     1  LIG  -0.0727   0.1382 
2     C2       4.2742   -8.7348   -1.1231 C.2     1  LIG   0.1831  -0.0615 
3     C3       3.2247   -9.1831   -0.4257 C.2     1  LIG  -0.2875  -0.1500 
4     C4       2.1370   -8.2932   -0.1299 C.2     1  LIG   0.2726   0.0767 
5     O1       1.1480   -8.8726    0.6306 O.3     1  LIG  -0.4728  -0.5267 
6     C5       2.1494   -7.0234   -0.5697 C.2     1  LIG  -0.4212   0.0288 
7     C6       3.3153   -6.5198   -1.3383 C.2     1  LIG   0.7556   0.7056 
8     O2       3.3549   -5.3639   -1.7481 O.2     1  LIG  -0.5557  -0.5700 
9     O3       4.3360   -7.3992   -1.5815 O.3     1  LIG  -0.3318  -0.2267 
10    C7       1.0161   -6.1132   -0.2580 C.2     1  LIG   0.5904   0.4946 
11    O4       1.1776   -5.1585    0.4985 O.2     1  LIG  -0.4924  -0.5700 
12    C8      -0.3086   -6.3872   -0.9208 C.3     1  LIG  -0.2098   0.0610 
13    H1       6.3704   -9.1292   -1.0610 H       1  LIG   0.0790   0.0000 
14    H2       5.3721  -10.5909   -1.1108 H       1  LIG   0.0642   0.0000 
15    H3       5.5724   -9.6113   -2.5722 H       1  LIG   0.0777   0.0000 
16    H4       3.1751  -10.2075   -0.0718 H       1  LIG   0.1765   0.1500 
17    H5       0.4984   -8.2001    0.8920 H       1  LIG   0.4382   0.4500 
18    H6      -0.6209   -5.4979   -1.4749 H       1  LIG   0.0870   0.0000 
19    H7      -0.2347   -7.2201   -1.6256 H       1  LIG   0.0552   0.0000 
20    H8      -1.0514   -6.6336   -0.1579 H       1  LIG   0.0643   0.0000 
@<TRIPOS>BOND
1     1     2     1
2     1     13    1
3     1     14    1
4     1     15    1
5     2     9     1
6     2     3     2
7     3     4     1
8     3     16    1
9     4     6     2
10    4     5     1
11    5     17    1
12    6     7     1
13    6     10    1
14    7     8     2
15    7     9     1
16    10    12    1
17    10    11    2
18    12    18    1
19    12    19    1
20    12    20    1
@<TRIPOS>SUBSTRUCTURE
1   LIG    1    
 
########## Number      : 27
########## Name        : ZINC00000210
########## Description : AM1BCC_CHARGES =   1.0001 ORIGINAL_CHARGES =   1.0000

@<TRIPOS>MOLECULE
ZINC00000210
47    50    1     0     0    
SMALL
USER_CHARGES
****
****
@<TRIPOS>ATOM
1     C1       5.6351   -9.8073   -0.8114 C.ar    1  LIG  -0.1054  -0.1500 
2     C2       4.3619  -10.2561   -0.4713 C.ar    1  LIG  -0.1233  -0.1500 
3     C3       3.6674   -9.6595    0.5833 C.ar    1  LIG  -0.0904  -0.1500 
4     C4       4.2319   -8.5972    1.3110 C.ar    1  LIG  -0.1177  -0.1435 
5     C5       5.5234   -8.1675    0.9607 C.ar    1  LIG  -0.1133  -0.1500 
6     C6       6.2166   -8.7651   -0.0945 C.ar    1  LIG  -0.1323  -0.1500 
7     C7       3.4759   -7.9626    2.4775 C.3     1  LIG   0.4712   0.8470 
8     O1       2.0568   -7.9437    2.1768 O.3     1  LIG  -0.4144  -0.5600 
9     C8       1.7460   -6.5922    1.8349 C.3     1  LIG   0.1264   0.2800 
10    C9       2.7198   -5.8249    2.6901 C.3     1  LIG   0.0907   0.2800 
11    O2       3.9094   -6.5899    2.6478 O.3     1  LIG  -0.4609  -0.5600 
12    C10      2.9765   -4.3753    2.2362 C.3     1  LIG   0.1348   0.5030 
13    C11      3.6439   -4.2771    0.8504 C.3     1  LIG  -0.1042   0.0000 
14    C12      3.9987   -2.8322    0.4992 C.3     1  LIG  -0.0994   0.0000 
15    C13      4.8482   -2.1865    1.5892 C.3     1  LIG  -0.1036   0.0000 
16    C14      4.1809   -2.2942    2.9497 C.3     1  LIG   0.1095   0.5030 
17    C15      3.7173   -8.7282    3.7771 C.ar    1  LIG  -0.1408  -0.1435 
18    C16      4.8446   -8.4558    4.5723 C.ar    1  LIG  -0.1064  -0.1500 
19    C17      5.0813   -9.1678    5.7502 C.ar    1  LIG  -0.1322  -0.1500 
20    C18      4.2008  -10.1694    6.1495 C.ar    1  LIG  -0.1038  -0.1500 
21    C19      3.0858  -10.4629    5.3691 C.ar    1  LIG  -0.1277  -0.1500 
22    C20      2.8477   -9.7517    4.1906 C.ar    1  LIG  -0.0951  -0.1500 
23    H1       6.1754  -10.2724   -1.6308 H       1  LIG   0.1461   0.1500 
24    H2       3.9086  -11.0737   -1.0247 H       1  LIG   0.1486   0.1500 
25    H3       2.6781  -10.0360    0.8328 H       1  LIG   0.1507   0.1500 
26    H4       6.0083   -7.3631    1.5082 H       1  LIG   0.1232   0.1500 
27    H5       7.2130   -8.4182   -0.3535 H       1  LIG   0.1393   0.1500 
28    H6       1.9148   -6.4780    0.7608 H       1  LIG   0.0674   0.0000 
29    H7       0.6997   -6.3710    2.0608 H       1  LIG   0.0855   0.0000 
30    H8       2.3150   -5.7795    3.7153 H       1  LIG   0.0708   0.0000 
31    H9       2.0093   -3.8463    2.1855 H       1  LIG   0.1060   0.0000 
32    H10      4.5584   -4.8823    0.8217 H       1  LIG   0.0956   0.0000 
33    H11      2.9780   -4.6696    0.0748 H       1  LIG   0.1016   0.0000 
34    H12      4.5370   -2.8051   -0.4549 H       1  LIG   0.0952   0.0000 
35    H13      3.0768   -2.2535    0.3634 H       1  LIG   0.0628   0.0000 
36    H14      5.8308   -2.6738    1.6210 H       1  LIG   0.0751   0.0000 
37    H15      5.0227   -1.1326    1.3460 H       1  LIG   0.1034   0.0000 
38    H16      4.8403   -1.9434    3.7490 H       1  LIG   0.1048   0.0000 
39    H17      3.2360   -1.7426    2.9918 H       1  LIG   0.1017   0.0000 
40    H18      5.5549   -7.6863    4.2793 H       1  LIG   0.1285   0.1500 
41    H19      5.9562   -8.9422    6.3535 H       1  LIG   0.1413   0.1500 
42    H20      4.3858  -10.7241    7.0647 H       1  LIG   0.1466   0.1500 
43    H21      2.4011  -11.2490    5.6748 H       1  LIG   0.1463   0.1500 
44    H22      1.9743  -10.0112    3.5971 H       1  LIG   0.1495   0.1500 
45    N1       3.8728   -3.7265    3.2357 N.4     1  LIG  -0.7635  -0.9060 
46    H23      3.4455   -3.7870    4.1703 H       1  LIG   0.4486   0.4500 
47    H24      4.7515   -4.2612    3.3011 H       1  LIG   0.4633   0.4500 
@<TRIPOS>BOND
1     1     6     ar
2     1     2     ar
3     1     23    1
4     2     3     ar
5     2     24    1
6     3     4     ar
7     3     25    1
8     4     5     ar
9     4     7     1
10    5     6     ar
11    5     26    1
12    6     27    1
13    7     11    1
14    7     8     1
15    7     17    1
16    8     9     1
17    9     10    1
18    9     28    1
19    9     29    1
20    10    11    1
21    10    12    1
22    10    30    1
23    12    13    1
24    12    31    1
25    12    45    1
26    13    14    1
27    13    32    1
28    13    33    1
29    14    15    1
30    14    34    1
31    14    35    1
32    15    16    1
33    15    36    1
34    15    37    1
35    16    38    1
36    16    39    1
37    16    45    1
38    17    22    ar
39    17    18    ar
40    18    19    ar
41    18    40    1
42    19    20    ar
43    19    41    1
44    20    21    ar
45    20    42    1
46    21    22    ar
47    21    43    1
48    22    44    1
49    45    46    1
50    45    47    1
@<TRIPOS>SUBSTRUCTURE
1   LIG    1    
 
########## Number      : 28
########## Name        : ZINC00000212
########## Description : AM1BCC_CHARGES =  -0.0001 ORIGINAL_CHARGES =  -0.0000

@<TRIPOS>MOLECULE
ZINC00000212
29    30    1     0     0    
SMALL
USER_CHARGES
****
****
@<TRIPOS>ATOM
1     C1       2.7304   -1.2281   -0.3548 C.3     1  LIG   0.0625   0.3001 
2     N1       3.8519   -0.3687    0.0158 N.am    1  LIG  -0.4276  -0.6602 
3     C2       3.9219    0.2342    1.3684 C.3     1  LIG   0.0100   0.5488 
4     S1       4.5681    1.9103    1.3426 S.o2    1  LIG   1.2669   1.0896 
5     O1       5.2829    2.1183    2.5883 O.2     1  LIG  -0.6334  -0.6500 
6     O2       3.5441    2.8407    0.9080 O.2     1  LIG  -0.6238  -0.6500 
7     C3       5.7788    1.8433    0.0391 C.3     1  LIG  -0.3212   0.1052 
8     C4       6.1693    0.4172   -0.2795 C.3     1  LIG  -0.1167   0.0610 
9     C5       4.9811   -0.3579   -0.8166 C.2     1  LIG   0.6711   0.5690 
10    O3       5.0610   -0.9369   -1.9002 O.2     1  LIG  -0.6001  -0.5700 
11    C6       2.6284    0.2489    2.1834 C.ar    1  LIG  -0.1103  -0.1435 
12    C7       2.6167   -0.3409    3.4580 C.ar    1  LIG  -0.0891  -0.1500 
13    C8       1.4610   -0.3366    4.2429 C.ar    1  LIG  -0.1232  -0.1500 
14    C9       0.2933    0.2630    3.7701 C.ar    1  LIG   0.0347   0.1770 
15    C10      0.2861    0.8616    2.5083 C.ar    1  LIG   0.0134   0.1770 
16    C11      1.4468    0.8553    1.7251 C.ar    1  LIG  -0.0862  -0.1500 
17    Cl1     -1.1217    1.6254    1.8590 Cl      1  LIG  -0.0541  -0.1770 
18    Cl2     -1.1023    0.2344    4.7877 Cl      1  LIG  -0.0570  -0.1770 
19    H1       1.8369   -0.6196   -0.5051 H       1  LIG   0.0529   0.0000 
20    H2       2.9267   -1.7652   -1.2869 H       1  LIG   0.0827   0.0000 
21    H3       2.5655   -1.9670    0.4346 H       1  LIG   0.0331   0.0000 
22    H4       4.5979   -0.4532    1.9104 H       1  LIG   0.0891   0.0000 
23    H5       5.3368    2.3251   -0.8396 H       1  LIG   0.1362   0.0000 
24    H6       6.6455    2.4284    0.3598 H       1  LIG   0.1318   0.0000 
25    H7       6.9536    0.4169   -1.0448 H       1  LIG   0.0984   0.0000 
26    H8       6.5677   -0.1023    0.5988 H       1  LIG   0.0754   0.0000 
27    H9       3.5129   -0.8112    3.8573 H       1  LIG   0.1462   0.1500 
28    H10      1.4881   -0.8045    5.2242 H       1  LIG   0.1576   0.1500 
29    H11      1.4293    1.3286    0.7452 H       1  LIG   0.1806   0.1500 
@<TRIPOS>BOND
1     1     2     1
2     1     19    1
3     1     20    1
4     1     21    1
5     2     9     am
6     2     3     1
7     3     4     1
8     3     11    1
9     3     22    1
10    4     5     2
11    4     6     2
12    4     7     1
13    7     8     1
14    7     23    1
15    7     24    1
16    8     9     1
17    8     25    1
18    8     26    1
19    9     10    2
20    11    16    ar
21    11    12    ar
22    12    13    ar
23    12    27    1
24    13    14    ar
25    13    28    1
26    14    15    ar
27    14    18    1
28    15    16    ar
29    15    17    1
30    16    29    1
@<TRIPOS>SUBSTRUCTURE
1   LIG    1    
 
########## Number      : 29
########## Name        : ZINC00000221
########## Description : AM1BCC_CHARGES =  -0.0002 ORIGINAL_CHARGES =  -0.0000

@<TRIPOS>MOLECULE
ZINC00000221
32    33    1     0     0    
SMALL
USER_CHARGES
****
****
@<TRIPOS>ATOM
1     C1       3.6822    5.3891   -2.3410 C.3     1  LIG   0.0227   0.2556 
2     N1       2.4210    5.5708   -1.6683 N.pl3   1  LIG  -0.1510   0.0476 
3     C2       1.3151    6.1855   -2.1929 C.2     1  LIG   0.4454   0.0365 
4     N2       0.3117    6.1993   -1.3400 N.2     1  LIG  -0.6868  -0.5653 
5     C3       0.8019    5.5675   -0.2304 C.2     1  LIG   0.4913   0.2902 
6     C4       2.1000    5.1687   -0.4016 C.2     1  LIG  -0.3552  -0.2366 
7     C5       2.8587    4.4841    0.5963 C.2     1  LIG   0.7636   0.7150 
8     O1       4.0217    4.1228    0.4356 O.2     1  LIG  -0.6361  -0.5700 
9     N3       2.1098    4.2701    1.7832 N.am    1  LIG  -0.4746  -0.4201 
10    C6       0.7504    4.6688    2.0153 C.2     1  LIG   0.8270   0.6900 
11    O2       0.1738    4.4478    3.0856 O.2     1  LIG  -0.6286  -0.5700 
12    N4       0.1095    5.3357    0.9469 N.am    1  LIG  -0.4192  -0.4231 
13    C7      -1.2715    5.7822    1.0746 C.3     1  LIG   0.0911   0.3001 
14    C8       2.7999    3.5611    2.8725 C.3     1  LIG   0.0978   0.3001 
15    C9       2.7576    2.0348    2.6776 C.3     1  LIG   0.1226   0.2800 
16    C10      3.6527    1.3420    3.7016 C.3     1  LIG   0.0935   0.2800 
17    O3       3.6906   -0.0508    3.4052 O.3     1  LIG  -0.6105  -0.6800 
18    O4       1.4240    1.5851    2.8687 O.3     1  LIG  -0.5963  -0.6800 
19    H1       4.2664   -0.4675    4.0692 H       1  LIG   0.4096   0.4000 
20    H2       1.4392    0.6138    2.8050 H       1  LIG   0.4205   0.4000 
21    H3       3.6280    5.8211   -3.3436 H       1  LIG   0.0561   0.0000 
22    H4       4.4600    5.8949   -1.7636 H       1  LIG   0.0685   0.0000 
23    H5       3.8871    4.3180   -2.4118 H       1  LIG   0.0771   0.0000 
24    H6       1.2963    6.6010   -3.1915 H       1  LIG   0.0697   0.1500 
25    H7      -1.6893    5.5280    2.0520 H       1  LIG   0.0846   0.0000 
26    H8      -1.3072    6.8688    0.9484 H       1  LIG   0.0508   0.0000 
27    H9      -1.8745    5.3009    0.2984 H       1  LIG   0.0535   0.0000 
28    H10      3.8411    3.9041    2.8972 H       1  LIG   0.0691   0.0000 
29    H11      2.3408    3.8303    3.8304 H       1  LIG   0.1024   0.0000 
30    H12      3.0931    1.7921    1.6575 H       1  LIG   0.0665   0.0000 
31    H13      4.6756    1.7287    3.6604 H       1  LIG   0.0371   0.0000 
32    H14      3.2572    1.4586    4.7160 H       1  LIG   0.0376   0.0000 
@<TRIPOS>BOND
1     1     2     1
2     1     21    1
3     1     22    1
4     1     23    1
5     2     6     1
6     2     3     1
7     3     4     2
8     3     24    1
9     4     5     1
10    5     12    1
11    5     6     2
12    6     7     1
13    7     8     2
14    7     9     am
15    9     10    am
16    9     14    1
17    10    11    2
18    10    12    am
19    12    13    1
20    13    25    1
21    13    26    1
22    13    27    1
23    14    15    1
24    14    28    1
25    14    29    1
26    15    16    1
27    15    18    1
28    15    30    1
29    16    17    1
30    16    31    1
31    16    32    1
32    17    19    1
33    18    20    1
@<TRIPOS>SUBSTRUCTURE
1   LIG    1    
 
########## Number      : 30
########## Name        : ZINC00000223
########## Description : AM1BCC_CHARGES =   1.0001 ORIGINAL_CHARGES =   1.0000

@<TRIPOS>MOLECULE
ZINC00000223
46    48    1     0     0    
SMALL
USER_CHARGES
****
****
@<TRIPOS>ATOM
1     C1      -7.7635    7.8845    2.1090 C.3     1  LIG  -0.0539   0.1382 
2     C2      -7.3535    6.5272    2.6014 C.2     1  LIG  -0.1954  -0.1238 
3     C3      -8.4028    5.4719    2.5426 C.2     1  LIG   0.5838   0.4694 
4     O1      -9.5362    5.7048    2.1412 O.2     1  LIG  -0.5000  -0.5700 
5     C4      -8.0184    4.1231    2.9875 C.ar    1  LIG  -0.2480   0.0862 
6     C5      -8.9354    3.0747    2.9423 C.ar    1  LIG   0.0319  -0.1500 
7     C6      -8.5530    1.7981    3.3586 C.ar    1  LIG  -0.2367  -0.1500 
8     C7      -7.2543    1.5589    3.8260 C.ar    1  LIG   0.2203   0.0825 
9     C8      -6.3262    2.6200    3.8813 C.ar    1  LIG  -0.2622  -0.1435 
10    C9      -6.7261    3.9010    3.4508 C.ar    1  LIG   0.1985   0.0825 
11    O2      -5.7935    4.9064    3.5026 O.3     1  LIG  -0.2738  -0.1592 
12    C10     -6.1430    6.1725    3.0739 C.2     1  LIG   0.1541   0.0483 
13    C11     -5.0227    7.1160    3.1850 C.ar    1  LIG  -0.0905   0.0284 
14    C12     -4.9583    8.0217    4.2522 C.ar    1  LIG  -0.0932  -0.1500 
15    C13     -3.8843    8.9068    4.3566 C.ar    1  LIG  -0.1252  -0.1500 
16    C14     -2.8696    8.8905    3.4005 C.ar    1  LIG  -0.0990  -0.1500 
17    C15     -2.9257    7.9887    2.3386 C.ar    1  LIG  -0.1321  -0.1500 
18    C16     -3.9977    7.1017    2.2301 C.ar    1  LIG  -0.1123  -0.1500 
19    C17     -4.9137    2.4057    4.3816 C.3     1  LIG   0.2018   0.6465 
20    C18     -2.4683    2.6319    3.9115 C.3     1  LIG   0.0844   0.5030 
21    C19     -3.9102    1.4252    2.2861 C.3     1  LIG   0.0862   0.5030 
22    O3      -6.7966    0.3337    4.2405 O.3     1  LIG  -0.3459  -0.3625 
23    C20     -7.7081   -0.7579    4.1965 C.3     1  LIG   0.1103   0.2800 
24    H1      -8.1463    7.8171    1.0849 H       1  LIG   0.0727   0.0000 
25    H2      -8.5531    8.2951    2.7470 H       1  LIG   0.0725   0.0000 
26    H3      -6.9417    8.6054    2.0953 H       1  LIG   0.0571   0.0000 
27    H4      -9.9495    3.2306    2.5830 H       1  LIG   0.1853   0.1500 
28    H5      -9.2971    1.0091    3.3023 H       1  LIG   0.1685   0.1500 
29    H6      -5.7399    8.0450    5.0079 H       1  LIG   0.1489   0.1500 
30    H7      -3.8386    9.6090    5.1843 H       1  LIG   0.1527   0.1500 
31    H8      -2.0347    9.5807    3.4833 H       1  LIG   0.1512   0.1500 
32    H9      -2.1342    7.9772    1.5946 H       1  LIG   0.1464   0.1500 
33    H10     -4.0270    6.4052    1.3955 H       1  LIG   0.1306   0.1500 
34    H11     -4.6925    3.1659    5.1416 H       1  LIG   0.1076   0.0000 
35    H12     -4.7721    1.4316    4.8620 H       1  LIG   0.1177   0.0000 
36    H13     -1.7517    2.7792    3.0992 H       1  LIG   0.0986   0.0000 
37    H14     -2.4552    3.4990    4.5772 H       1  LIG   0.1048   0.0000 
38    H15     -2.2563    1.7107    4.4606 H       1  LIG   0.1007   0.0000 
39    H16     -3.1166    1.5946    1.5534 H       1  LIG   0.0945   0.0000 
40    H17     -3.7740    0.4671    2.7946 H       1  LIG   0.1009   0.0000 
41    H18     -4.8812    1.4734    1.7880 H       1  LIG   0.1098   0.0000 
42    H19     -7.1819   -1.6458    4.5600 H       1  LIG   0.0858   0.0000 
43    H20     -8.5636   -0.5849    4.8576 H       1  LIG   0.0595   0.0000 
44    H21     -8.0316   -0.9606    3.1703 H       1  LIG   0.0528   0.0000 
45    N1      -3.8426    2.5260    3.3092 N.4     1  LIG  -0.6837  -0.9590 
46    H22     -4.0110    3.4120    2.8136 H       1  LIG   0.4621   0.4500 
@<TRIPOS>BOND
1     1     2     1
2     1     24    1
3     1     25    1
4     1     26    1
5     2     12    2
6     2     3     1
7     3     4     2
8     3     5     1
9     5     10    ar
10    5     6     ar
11    6     7     ar
12    6     27    1
13    7     8     ar
14    7     28    1
15    8     9     ar
16    8     22    1
17    9     10    ar
18    9     19    1
19    10    11    1
20    11    12    1
21    12    13    1
22    13    18    ar
23    13    14    ar
24    14    15    ar
25    14    29    1
26    15    16    ar
27    15    30    1
28    16    17    ar
29    16    31    1
30    17    18    ar
31    17    32    1
32    18    33    1
33    19    34    1
34    19    35    1
35    19    45    1
36    20    36    1
37    20    37    1
38    20    38    1
39    20    45    1
40    21    39    1
41    21    40    1
42    21    41    1
43    21    45    1
44    22    23    1
45    23    42    1
46    23    43    1
47    23    44    1
48    45    46    1
@<TRIPOS>SUBSTRUCTURE
1   LIG    1    
 
########## Number      : 31
########## Name        : ZINC00000226
########## Description : AM1BCC_CHARGES =  -1.0001 ORIGINAL_CHARGES =  -1.0000

@<TRIPOS>MOLECULE
ZINC00000226
21    21    1     0     0    
SMALL
USER_CHARGES
****
****
@<TRIPOS>ATOM
1     C1       4.5010   -9.3623   -1.5700 C.3     1  LIG  -0.1804   0.0610 
2     C2       3.5416   -8.5819   -0.7069 C.2     1  LIG   0.6558   0.5690 
3     O1       3.1821   -9.0150    0.3829 O.2     1  LIG  -0.6091  -0.5700 
4     N1       3.1726   -7.3905   -1.3162 N.am    1  LIG  -0.4600  -0.5470 
5     C3       2.2938   -6.4034   -0.8131 C.ar    1  LIG   0.0194   0.1170 
6     C4       1.6418   -6.4836    0.4182 C.ar    1  LIG  -0.1719  -0.1500 
7     C5       0.7865   -5.4555    0.8367 C.ar    1  LIG  -0.0915  -0.1500 
8     C6       0.5624   -4.3254    0.0373 C.ar    1  LIG  -0.1380  -0.1790 
9     C7       1.2204   -4.2523   -1.1973 C.ar    1  LIG  -0.0880  -0.1500 
10    C8       2.0745   -5.2777   -1.6163 C.ar    1  LIG  -0.2069  -0.1500 
11    C9      -0.3597   -3.2212    0.4929 C.2     1  LIG   0.9090   0.9790 
12    O2      -0.5111   -2.2299   -0.2880 O.co2   1  LIG  -0.8352  -0.9000 
13    H1       3.5736   -7.1935   -2.2296 H       1  LIG   0.3012   0.3700 
14    H2       4.7757  -10.2945   -1.0685 H       1  LIG   0.0679   0.0000 
15    H3       4.0294   -9.6012   -2.5275 H       1  LIG   0.0502   0.0000 
16    H4       5.4065   -8.7742   -1.7445 H       1  LIG   0.0497   0.0000 
17    H5       1.7688   -7.3276    1.0863 H       1  LIG   0.1489   0.1500 
18    H6       0.2962   -5.5540    1.8030 H       1  LIG   0.1544   0.1500 
19    H7       1.0779   -3.3953   -1.8517 H       1  LIG   0.1527   0.1500 
20    H8       2.5655   -5.1809   -2.5821 H       1  LIG   0.1011   0.1500 
21    O3      -0.9201   -3.3601    1.6251 O.co2   1  LIG  -0.8294  -0.9000 
@<TRIPOS>BOND
1     1     2     1
2     1     14    1
3     1     15    1
4     1     16    1
5     2     3     2
6     2     4     am
7     4     5     1
8     4     13    1
9     5     10    ar
10    5     6     ar
11    6     7     ar
12    6     17    1
13    7     8     ar
14    7     18    1
15    8     9     ar
16    8     11    1
17    9     10    ar
18    9     19    1
19    10    20    1
20    11    12    2
21    11    21    1
@<TRIPOS>SUBSTRUCTURE
1   LIG    1    
 
########## Number      : 32
########## Name        : ZINC00000229
########## Description : AM1BCC_CHARGES =  -0.0001 ORIGINAL_CHARGES =  -0.0000

@<TRIPOS>MOLECULE
ZINC00000229
56    59    1     0     0    
SMALL
USER_CHARGES
****
****
@<TRIPOS>ATOM
1     C1       7.2136    2.3192    0.9006 C.3     1  LIG  -0.0560   0.1382 
2     C2       6.2742    3.4901    0.9996 C.2     1  LIG  -0.2066  -0.1238 
3     C3       5.1537    3.6694    0.2620 C.2     1  LIG  -0.0408  -0.2764 
4     C4       4.7434    2.6679   -0.8076 C.3     1  LIG  -0.0508   0.1382 
5     C5       3.2614    2.6784   -1.1836 C.3     1  LIG  -0.0707   0.0000 
6     C6       2.6660    4.0767   -1.4656 C.3     1  LIG  -0.0493   0.0000 
7     C7       2.2918    4.3174   -2.9369 C.3     1  LIG  -0.0592   0.0000 
8     C8       1.4439    3.2960   -3.6921 C.3     1  LIG  -0.0730   0.0000 
9     C9       0.8822    4.1047   -4.8928 C.3     1  LIG  -0.0733   0.0000 
10    C10      1.2267    5.6073   -4.6491 C.3     1  LIG   0.1516   0.2800 
11    C11      1.5157    5.6266   -3.1266 C.3     1  LIG  -0.0764   0.0000 
12    C12      2.4017    6.7959   -2.6261 C.3     1  LIG  -0.1021   0.0000 
13    C13      2.9786    6.5889   -1.1963 C.3     1  LIG   0.1515   0.2800 
14    C14      3.6625    5.2018   -1.0528 C.3     1  LIG  -0.0413   0.0000 
15    C15      4.2834    4.9261    0.3710 C.3     1  LIG  -0.0023   0.1382 
16    C16      5.1728    6.1266    0.7793 C.3     1  LIG  -0.0697   0.0000 
17    C17      5.9668    5.8531    2.0463 C.3     1  LIG  -0.1787   0.0610 
18    C18      6.6887    4.5299    1.9999 C.2     1  LIG   0.5755   0.4946 
19    O1       7.5983    4.2971    2.7979 O.2     1  LIG  -0.5445  -0.5700 
20    C19      3.2115    4.7130    1.4707 C.3     1  LIG  -0.0849   0.0000 
21    O2       1.9342    6.7198   -0.2505 O.3     1  LIG  -0.5988  -0.6800 
22    C20      0.1665    5.6688   -2.3408 C.3     1  LIG  -0.0897   0.0000 
23    C21      2.3637    6.0580   -5.5697 C.3     1  LIG  -0.1181   0.0000 
24    O3       0.0941    6.4176   -4.9645 O.3     1  LIG  -0.5909  -0.6800 
25    H1       1.8695    7.6731   -0.0152 H       1  LIG   0.4010   0.4000 
26    H2       0.3144    7.3366   -4.7358 H       1  LIG   0.3971   0.4000 
27    H3       7.0640    1.7170    0.0014 H       1  LIG   0.0359   0.0000 
28    H4       8.2533    2.6633    0.8639 H       1  LIG   0.0676   0.0000 
29    H5       7.0962    1.6670    1.7720 H       1  LIG   0.0433   0.0000 
30    H6       5.3320    2.8724   -1.7114 H       1  LIG   0.0555   0.0000 
31    H7       4.9818    1.6461   -0.4916 H       1  LIG   0.0569   0.0000 
32    H8       3.1074    2.0003   -2.0295 H       1  LIG   0.0461   0.0000 
33    H9       2.7018    2.2284   -0.3519 H       1  LIG   0.0450   0.0000 
34    H10      1.7461    4.0862   -0.8672 H       1  LIG   0.0724   0.0000 
35    H11      3.2619    4.3058   -3.4663 H       1  LIG   0.0439   0.0000 
36    H12      2.0305    2.4398   -4.0394 H       1  LIG   0.0436   0.0000 
37    H13      0.6257    2.9136   -3.0721 H       1  LIG   0.0497   0.0000 
38    H14      1.3263    3.7403   -5.8265 H       1  LIG   0.0479   0.0000 
39    H15     -0.1993    3.9455   -4.9767 H       1  LIG   0.0683   0.0000 
40    H16      3.2644    6.9194   -3.2907 H       1  LIG   0.0537   0.0000 
41    H17      1.8329    7.7330   -2.6633 H       1  LIG   0.0389   0.0000 
42    H18      3.7165    7.3911   -1.0485 H       1  LIG   0.0307   0.0000 
43    H19      4.4916    5.1553   -1.7906 H       1  LIG   0.0498   0.0000 
44    H20      5.8750    6.3578   -0.0339 H       1  LIG   0.0423   0.0000 
45    H21      4.5738    7.0287    0.9478 H       1  LIG   0.0588   0.0000 
46    H22      6.7125    6.6459    2.1750 H       1  LIG   0.0722   0.0000 
47    H23      5.3177    5.8578    2.9283 H       1  LIG   0.0749   0.0000 
48    H24      2.4357    3.9989    1.1865 H       1  LIG   0.0390   0.0000 
49    H25      3.6563    4.3133    2.3904 H       1  LIG   0.0337   0.0000 
50    H26      2.7192    5.6489    1.7499 H       1  LIG   0.0665   0.0000 
51    H27     -0.5652    4.9587   -2.7416 H       1  LIG   0.0494   0.0000 
52    H28      0.2569    5.4366   -1.2799 H       1  LIG   0.0559   0.0000 
53    H29     -0.2893    6.6638   -2.4103 H       1  LIG   0.0286   0.0000 
54    H30      2.5720    7.1267   -5.4495 H       1  LIG   0.0330   0.0000 
55    H31      3.2882    5.4984   -5.4025 H       1  LIG   0.0456   0.0000 
56    H32      2.0763    5.9287   -6.6202 H       1  LIG   0.0512   0.0000 
@<TRIPOS>BOND
1     1     2     1
2     1     27    1
3     1     28    1
4     1     29    1
5     2     18    1
6     2     3     2
7     3     15    1
8     3     4     1
9     4     5     1
10    4     30    1
11    4     31    1
12    5     6     1
13    5     32    1
14    5     33    1
15    6     14    1
16    6     7     1
17    6     34    1
18    7     11    1
19    7     8     1
20    7     35    1
21    8     9     1
22    8     36    1
23    8     37    1
24    9     10    1
25    9     38    1
26    9     39    1
27    10    11    1
28    10    23    1
29    10    24    1
30    11    12    1
31    11    22    1
32    12    13    1
33    12    40    1
34    12    41    1
35    13    14    1
36    13    21    1
37    13    42    1
38    14    15    1
39    14    43    1
40    15    16    1
41    15    20    1
42    16    17    1
43    16    44    1
44    16    45    1
45    17    18    1
46    17    46    1
47    17    47    1
48    18    19    2
49    20    48    1
50    20    49    1
51    20    50    1
52    21    25    1
53    22    51    1
54    22    52    1
55    22    53    1
56    23    54    1
57    23    55    1
58    23    56    1
59    24    26    1
@<TRIPOS>SUBSTRUCTURE
1   LIG    1    
 
########## Number      : 33
########## Name        : ZINC00000242
########## Description : AM1BCC_CHARGES =   1.0002 ORIGINAL_CHARGES =   1.0000

@<TRIPOS>MOLECULE
ZINC00000242
43    44    1     0     0    
SMALL
USER_CHARGES
****
****
@<TRIPOS>ATOM
1     C1       7.4394   -5.5710    1.3516 C.3     1  LIG  -0.1080   0.0000 
2     C2       6.1728   -5.3871    2.2190 C.3     1  LIG   0.1572   0.5670 
3     C3       5.2194   -6.5494    1.8657 C.ar    1  LIG  -0.1096  -0.1435 
4     C4       4.9940   -7.6131    2.7573 C.ar    1  LIG  -0.1060  -0.1500 
5     C5       4.1368   -8.6647    2.4213 C.ar    1  LIG  -0.1285  -0.1500 
6     C6       3.4936   -8.6777    1.1870 C.ar    1  LIG  -0.1095  -0.1500 
7     C7       3.7095   -7.6411    0.2843 C.ar    1  LIG  -0.1235  -0.1500 
8     C8       4.5659   -6.5893    0.6179 C.ar    1  LIG  -0.1149  -0.1500 
9     C9       5.4771   -4.0406    1.9606 C.ar    1  LIG   0.3472   0.1665 
10    C10      4.3855   -3.6558    2.7456 C.ar    1  LIG  -0.2154  -0.1500 
11    C11      3.7683   -2.4346    2.4913 C.ar    1  LIG  -0.0962  -0.1500 
12    C12      4.2412   -1.6258    1.4678 C.ar    1  LIG  -0.2283  -0.1500 
13    C13      5.3227   -2.0789    0.7347 C.ar    1  LIG   0.3873   0.1600 
14    N1       5.9471   -3.2577    0.9557 N.ar    1  LIG  -0.6791  -0.6200 
15    O1       6.4899   -5.4654    3.6274 O.3     1  LIG  -0.3948  -0.5600 
16    C14      7.7076   -4.9271    4.1382 C.3     1  LIG   0.1275   0.2800 
17    C15      7.7449   -3.4018    4.1347 C.3     1  LIG   0.0448   0.5030 
18    C16      9.2790   -1.4540    4.4011 C.3     1  LIG   0.0833   0.5030 
19    C17      8.9883   -3.0199    6.3013 C.3     1  LIG   0.0816   0.5030 
20    H1       8.1621   -4.7599    1.4934 H       1  LIG   0.0261   0.0000 
21    H2       7.9539   -6.5057    1.6063 H       1  LIG   0.0564   0.0000 
22    H3       7.2106   -5.6019    0.2797 H       1  LIG   0.0888   0.0000 
23    H4       5.4831   -7.6445    3.7275 H       1  LIG   0.1392   0.1500 
24    H5       3.9742   -9.4758    3.1258 H       1  LIG   0.1421   0.1500 
25    H6       2.8285   -9.4962    0.9279 H       1  LIG   0.1450   0.1500 
26    H7       3.2135   -7.6502   -0.6821 H       1  LIG   0.1447   0.1500 
27    H8       4.7192   -5.7979   -0.1126 H       1  LIG   0.1410   0.1500 
28    H9       4.0149   -4.2913    3.5442 H       1  LIG   0.1640   0.1500 
29    H10      2.9191   -2.1182    3.0898 H       1  LIG   0.1542   0.1500 
30    H11      3.7764   -0.6714    1.2484 H       1  LIG   0.1592   0.1500 
31    H12      5.7305   -1.4870   -0.0784 H       1  LIG   0.0336   0.1500 
32    H13      7.7622   -5.2890    5.1694 H       1  LIG   0.0785   0.0000 
33    H14      8.5738   -5.3600    3.6279 H       1  LIG   0.0595   0.0000 
34    H15      7.7598   -3.0270    3.1081 H       1  LIG   0.1220   0.0000 
35    H16      6.8808   -2.9653    4.6475 H       1  LIG   0.1166   0.0000 
36    H17     10.2189   -1.1458    4.8667 H       1  LIG   0.1037   0.0000 
37    H18      9.3789   -1.4200    3.3129 H       1  LIG   0.1089   0.0000 
38    H19      8.4479   -0.8300    4.7404 H       1  LIG   0.1071   0.0000 
39    H20      9.9225   -2.6046    6.6893 H       1  LIG   0.1033   0.0000 
40    H21      8.1266   -2.4744    6.6949 H       1  LIG   0.1074   0.0000 
41    H22      8.9339   -4.0803    6.5541 H       1  LIG   0.1063   0.0000 
42    N2       9.0022   -2.8808    4.8021 N.4     1  LIG  -0.6717  -0.9590 
43    H23      9.7940   -3.4366    4.4511 H       1  LIG   0.4492   0.4500 
@<TRIPOS>BOND
1     1     2     1
2     1     20    1
3     1     21    1
4     1     22    1
5     2     3     1
6     2     9     1
7     2     15    1
8     3     8     ar
9     3     4     ar
10    4     5     ar
11    4     23    1
12    5     6     ar
13    5     24    1
14    6     7     ar
15    6     25    1
16    7     8     ar
17    7     26    1
18    8     27    1
19    9     14    ar
20    9     10    ar
21    10    11    ar
22    10    28    1
23    11    12    ar
24    11    29    1
25    12    13    ar
26    12    30    1
27    13    14    ar
28    13    31    1
29    15    16    1
30    16    17    1
31    16    32    1
32    16    33    1
33    17    34    1
34    17    35    1
35    17    42    1
36    18    36    1
37    18    37    1
38    18    38    1
39    18    42    1
40    19    39    1
41    19    40    1
42    19    41    1
43    19    42    1
44    42    43    1
@<TRIPOS>SUBSTRUCTURE
1   LIG    1    
 
########## Number      : 34
########## Name        : ZINC00000252
########## Description : AM1BCC_CHARGES =   0.0001 ORIGINAL_CHARGES =   0.0000

@<TRIPOS>MOLECULE
ZINC00000252
45    48    1     0     0    
SMALL
USER_CHARGES
****
****
@<TRIPOS>ATOM
1     C1       5.4093    2.5888    3.1041 C.3     1  LIG  -0.0899   0.0000 
2     C2       3.9197    2.8268    3.4678 C.3     1  LIG  -0.0495   0.0000 
3     C3       3.1143    2.9586    2.1628 C.3     1  LIG  -0.0602   0.0000 
4     C4       3.0467    1.6266    1.3853 C.3     1  LIG  -0.0720   0.0000 
5     C5       2.5713    0.4292    2.2622 C.3     1  LIG  -0.0087   0.1435 
6     C6       2.6463   -0.9072    1.5265 C.ar    1  LIG  -0.0990  -0.1435 
7     C7       2.4071   -0.9969    0.1421 C.ar    1  LIG  -0.0907  -0.1500 
8     C8       2.4204   -2.2254   -0.5230 C.ar    1  LIG  -0.2149  -0.1500 
9     C9       2.6563   -3.3892    0.1947 C.ar    1  LIG   0.1223   0.0825 
10    C10      2.8690   -3.3394    1.5668 C.ar    1  LIG  -0.1620  -0.1500 
11    C11      2.8505   -2.1080    2.2455 C.ar    1  LIG  -0.0384  -0.1435 
12    C12      3.1052   -2.1281    3.7341 C.3     1  LIG  -0.0371   0.1435 
13    C13      2.8446   -0.7953    4.4302 C.3     1  LIG  -0.0737   0.0000 
14    C14      3.3987    0.3496    3.5708 C.3     1  LIG  -0.0485   0.0000 
15    C15      3.2849    1.6985    4.2854 C.3     1  LIG  -0.0617   0.0000 
16    C16      3.8973    1.8601    5.6827 C.3     1  LIG  -0.1031   0.0000 
17    C17      4.2112    3.3825    5.7780 C.3     1  LIG   0.1008   0.2800 
18    C18      3.8112    4.0202    4.4300 C.3     1  LIG   0.1578   0.2800 
19    O1       2.4591    4.4653    4.4994 O.3     1  LIG  -0.5962  -0.6800 
20    O2       3.4657    3.9778    6.8302 O.3     1  LIG  -0.6087  -0.6800 
21    O3       2.6795   -4.6080   -0.4208 O.3     1  LIG  -0.4995  -0.5325 
22    H1       2.3671    4.9539    5.3366 H       1  LIG   0.4230   0.4000 
23    H2       3.7074    3.5199    7.6535 H       1  LIG   0.4118   0.4000 
24    H3       2.5151   -4.4786   -1.3704 H       1  LIG   0.4177   0.4500 
25    H4       6.0335    2.4246    3.9879 H       1  LIG   0.0311   0.0000 
26    H5       5.5645    1.7297    2.4471 H       1  LIG   0.0454   0.0000 
27    H6       5.8142    3.4648    2.5836 H       1  LIG   0.0369   0.0000 
28    H7       2.0840    3.2706    2.3752 H       1  LIG   0.0658   0.0000 
29    H8       3.5456    3.7363    1.5211 H       1  LIG   0.0439   0.0000 
30    H9       2.3538    1.7801    0.5494 H       1  LIG   0.0388   0.0000 
31    H10      4.0219    1.4044    0.9360 H       1  LIG   0.0435   0.0000 
32    H11      1.5139    0.6528    2.4972 H       1  LIG   0.0589   0.0000 
33    H12      2.1956   -0.1116   -0.4504 H       1  LIG   0.1343   0.1500 
34    H13      2.2395   -2.2547   -1.5935 H       1  LIG   0.1322   0.1500 
35    H14      3.0480   -4.2609    2.1162 H       1  LIG   0.1479   0.1500 
36    H15      2.4854   -2.8995    4.2069 H       1  LIG   0.0529   0.0000 
37    H16      4.1550   -2.4087    3.8895 H       1  LIG   0.0517   0.0000 
38    H17      1.7662   -0.6611    4.5859 H       1  LIG   0.0468   0.0000 
39    H18      3.3099   -0.8162    5.4218 H       1  LIG   0.0413   0.0000 
40    H19      4.4525    0.0920    3.3775 H       1  LIG   0.0588   0.0000 
41    H20      2.2000    1.8448    4.4470 H       1  LIG   0.0678   0.0000 
42    H21      3.2155    1.5198    6.4689 H       1  LIG   0.0501   0.0000 
43    H22      4.8263    1.2844    5.7634 H       1  LIG   0.0484   0.0000 
44    H23      5.2858    3.4924    5.9869 H       1  LIG   0.0400   0.0000 
45    H24      4.4428    4.8600    4.1090 H       1  LIG   0.0440   0.0000 
@<TRIPOS>BOND
1     1     2     1
2     1     25    1
3     1     26    1
4     1     27    1
5     2     15    1
6     2     18    1
7     2     3     1
8     3     4     1
9     3     28    1
10    3     29    1
11    4     5     1
12    4     30    1
13    4     31    1
14    5     14    1
15    5     6     1
16    5     32    1
17    6     11    ar
18    6     7     ar
19    7     8     ar
20    7     33    1
21    8     9     ar
22    8     34    1
23    9     10    ar
24    9     21    1
25    10    11    ar
26    10    35    1
27    11    12    1
28    12    13    1
29    12    36    1
30    12    37    1
31    13    14    1
32    13    38    1
33    13    39    1
34    14    15    1
35    14    40    1
36    15    16    1
37    15    41    1
38    16    17    1
39    16    42    1
40    16    43    1
41    17    18    1
42    17    20    1
43    17    44    1
44    18    19    1
45    18    45    1
46    19    22    1
47    20    23    1
48    21    24    1
@<TRIPOS>SUBSTRUCTURE
1   LIG    1    
 
########## Number      : 35
########## Name        : ZINC00000266
########## Description : AM1BCC_CHARGES =  -0.0002 ORIGINAL_CHARGES =   0.0000

@<TRIPOS>MOLECULE
ZINC00000266
33    33    1     0     0    
SMALL
USER_CHARGES
****
****
@<TRIPOS>ATOM
1     C1       3.3324   -8.5586    1.8985 C.3     1  LIG  -0.1131   0.0000 
2     C2       4.2624   -8.2024    0.7493 C.3     1  LIG   0.0917   0.3001 
3     N1       3.8536   -6.9609    0.0875 N.am    1  LIG  -0.4771  -0.6602 
4     C3       2.8892   -7.0807   -1.0167 C.3     1  LIG   0.0954   0.3001 
5     C4       3.5688   -7.4278   -2.3324 C.3     1  LIG  -0.1167   0.0000 
6     C5       4.3776   -5.7527    0.5625 C.2     1  LIG   0.6751   0.5438 
7     O1       5.1585   -5.6362    1.5054 O.2     1  LIG  -0.5958  -0.5700 
8     C6       3.9667   -4.5086   -0.1009 C.ar    1  LIG  -0.1307   0.0862 
9     C7       4.6968   -4.0444   -1.1961 C.ar    1  LIG  -0.0950  -0.1500 
10    C8       4.3184   -2.8519   -1.8049 C.ar    1  LIG  -0.1412  -0.1500 
11    C9       3.2288   -2.1394   -1.3037 C.ar    1  LIG   0.1238   0.0825 
12    C10      2.5021   -2.5919   -0.1933 C.ar    1  LIG   0.0396   0.0825 
13    C11      2.8827   -3.7885    0.4167 C.ar    1  LIG  -0.1349  -0.1500 
14    O2       1.4602   -1.7926    0.1979 O.3     1  LIG  -0.3477  -0.3625 
15    C12      0.7033   -2.2272    1.3216 C.3     1  LIG   0.1201   0.2800 
16    O3       2.8914   -0.9708   -1.9345 O.3     1  LIG  -0.4924  -0.5325 
17    H1       2.1230   -0.6004   -1.4646 H       1  LIG   0.4388   0.4500 
18    H2       3.6648   -9.4811    2.3843 H       1  LIG   0.0416   0.0000 
19    H3       3.3134   -7.7630    2.6505 H       1  LIG   0.0490   0.0000 
20    H4       2.3069   -8.7085    1.5462 H       1  LIG   0.0315   0.0000 
21    H5       5.2798   -8.0834    1.1385 H       1  LIG   0.0762   0.0000 
22    H6       4.2885   -9.0120    0.0127 H       1  LIG   0.0391   0.0000 
23    H7       2.1589   -7.8541   -0.7546 H       1  LIG   0.0450   0.0000 
24    H8       2.3307   -6.1489   -1.1369 H       1  LIG   0.0565   0.0000 
25    H9       2.8279   -7.4936   -3.1351 H       1  LIG   0.0431   0.0000 
26    H10      4.3081   -6.6713   -2.6109 H       1  LIG   0.0428   0.0000 
27    H11      4.0871   -8.3898   -2.2708 H       1  LIG   0.0397   0.0000 
28    H12      5.5496   -4.5998   -1.5754 H       1  LIG   0.1457   0.1500 
29    H13      4.8725   -2.4802   -2.6620 H       1  LIG   0.1571   0.1500 
30    H14      2.3589   -4.1818    1.2824 H       1  LIG   0.1487   0.1500 
31    H15     -0.0832   -1.4877    1.5002 H       1  LIG   0.0682   0.0000 
32    H16      0.2175   -3.1882    1.1226 H       1  LIG   0.0344   0.0000 
33    H17      1.3252   -2.2753    2.2216 H       1  LIG   0.0413   0.0000 
@<TRIPOS>BOND
1     1     2     1
2     1     18    1
3     1     19    1
4     1     20    1
5     2     3     1
6     2     21    1
7     2     22    1
8     3     4     1
9     3     6     am
10    4     5     1
11    4     23    1
12    4     24    1
13    5     25    1
14    5     26    1
15    5     27    1
16    6     7     2
17    6     8     1
18    8     13    ar
19    8     9     ar
20    9     10    ar
21    9     28    1
22    10    11    ar
23    10    29    1
24    11    12    ar
25    11    16    1
26    12    13    ar
27    12    14    1
28    13    30    1
29    14    15    1
30    15    31    1
31    15    32    1
32    15    33    1
33    16    17    1
@<TRIPOS>SUBSTRUCTURE
1   LIG    1    
 
########## Number      : 36
########## Name        : ZINC00000267
########## Description : AM1BCC_CHARGES =  -0.0001 ORIGINAL_CHARGES =  -0.0000

@<TRIPOS>MOLECULE
ZINC00000267
18    17    1     0     0    
SMALL
USER_CHARGES
****
****
@<TRIPOS>ATOM
1     C1       4.1951   -3.2687    1.2292 C.3     1  LIG  -0.0948   0.0000 
2     C2       3.1124   -4.2132    0.7138 C.3     1  LIG  -0.0985   0.0000 
3     C3       2.6453   -3.9284   -0.7334 C.3     1  LIG   0.2766   0.6182 
4     C4       2.0242   -2.5520   -0.8469 C.2     1  LIG  -0.1505  -0.2882 
5     C5       0.7234   -2.2448   -0.9112 C.2     1  LIG  -0.0577  -0.0100 
6     Cl1      0.1579   -0.6307   -1.0384 Cl      1  LIG  -0.1133  -0.1400 
7     C6       1.6905   -4.9885   -1.1353 C.1     1  LIG  -0.1811  -0.2000 
8     C7       0.9313   -5.8599   -1.4631 C.1     1  LIG  -0.1202  -0.1770 
9     O1       3.7703   -3.9698   -1.6085 O.3     1  LIG  -0.5831  -0.6800 
10    H1       4.1919   -4.8409   -1.5126 H       1  LIG   0.4081   0.4000 
11    H2       4.5076   -3.5740    2.2333 H       1  LIG   0.0376   0.0000 
12    H3       5.0795   -3.2853    0.5851 H       1  LIG   0.0472   0.0000 
13    H4       3.8323   -2.2388    1.2958 H       1  LIG   0.0417   0.0000 
14    H5       3.5224   -5.2314    0.7671 H       1  LIG   0.0461   0.0000 
15    H6       2.2585   -4.1851    1.4038 H       1  LIG   0.0578   0.0000 
16    H7       2.7397   -1.7303   -0.8791 H       1  LIG   0.1606   0.1500 
17    H8      -0.0905   -2.9557   -0.8825 H       1  LIG   0.1553   0.1500 
18    H9       0.2582   -6.6321   -1.7546 H       1  LIG   0.1681   0.1770 
@<TRIPOS>BOND
1     1     2     1
2     1     11    1
3     1     12    1
4     1     13    1
5     2     3     1
6     2     14    1
7     2     15    1
8     3     4     1
9     3     7     1
10    3     9     1
11    4     5     2
12    4     16    1
13    5     6     1
14    5     17    1
15    7     8     3
16    8     18    1
17    9     10    1
@<TRIPOS>SUBSTRUCTURE
1   LIG    1    
 
########## Number      : 37
########## Name        : ZINC00000293
########## Description : AM1BCC_CHARGES =   0.9998 ORIGINAL_CHARGES =   1.0000

@<TRIPOS>MOLECULE
ZINC00000293
49    51    1     0     0    
SMALL
USER_CHARGES
****
****
@<TRIPOS>ATOM
1     C1      -3.9113    1.7202   -0.6866 C.3     1  LIG  -0.1394   0.0000 
2     C2      -2.9077    2.8763   -0.7162 C.3     1  LIG   0.1349   0.5030 
3     C3      -2.1362    2.8667   -2.0494 C.3     1  LIG  -0.0574   0.1435 
4     C4      -1.2413    4.0639   -2.2535 C.ar    1  LIG  -0.1554  -0.1435 
5     C5      -1.7924    5.3251   -2.5212 C.ar    1  LIG  -0.1250  -0.1500 
6     C6      -0.9657    6.4366   -2.6906 C.ar    1  LIG  -0.1149  -0.1500 
7     C7       0.4177    6.2987   -2.5966 C.ar    1  LIG  -0.1007  -0.1500 
8     C8       0.9763    5.0489   -2.3361 C.ar    1  LIG  -0.1144  -0.1500 
9     C9       0.1519    3.9355   -2.1668 C.ar    1  LIG  -0.1430  -0.1500 
10    C10     -1.6559    3.9570    1.1979 C.3     1  LIG   0.0801   0.5030 
11    C11     -0.6186    3.6467    2.2714 C.3     1  LIG   0.0299   0.2556 
12    N1      -0.2165    4.7654    3.1048 N.pl3   1  LIG  -0.1927   0.0476 
13    C12     -0.6427    6.0658    3.0300 C.2     1  LIG   0.4522   0.0365 
14    N2      -0.0728    6.8270    3.9410 N.2     1  LIG  -0.6527  -0.5653 
15    C13      0.7521    5.9799    4.6240 C.2     1  LIG   0.5170   0.2902 
16    C14      0.6889    4.7031    4.1346 C.2     1  LIG  -0.3616  -0.2366 
17    C15      1.4511    3.6129    4.6626 C.2     1  LIG   0.7666   0.7150 
18    O1       1.3917    2.4697    4.2183 O.2     1  LIG  -0.6542  -0.5700 
19    N3       2.2704    4.0149    5.7460 N.am    1  LIG  -0.4733  -0.4201 
20    C16      2.3733    5.3354    6.2964 C.2     1  LIG   0.8122   0.6900 
21    O2       3.1220    5.5855    7.2473 O.2     1  LIG  -0.5975  -0.5700 
22    N4       1.5712    6.3242    5.6872 N.am    1  LIG  -0.4123  -0.4231 
23    C17      1.5987    7.6995    6.1671 C.3     1  LIG   0.0828   0.3001 
24    C18      3.1018    2.9987    6.3796 C.3     1  LIG   0.0758   0.3001 
25    H1      -4.6317    1.8120   -1.5063 H       1  LIG   0.1031   0.0000 
26    H2      -3.4090    0.7514   -0.7838 H       1  LIG   0.0722   0.0000 
27    H3      -4.4748    1.7178    0.2528 H       1  LIG   0.0682   0.0000 
28    H4      -3.4831    3.8085   -0.5945 H       1  LIG   0.1094   0.0000 
29    H5      -1.5504    1.9423   -2.1418 H       1  LIG   0.0760   0.0000 
30    H6      -2.8496    2.8412   -2.8844 H       1  LIG   0.1082   0.0000 
31    H7      -2.8697    5.4499   -2.5988 H       1  LIG   0.1390   0.1500 
32    H8      -1.4011    7.4103   -2.8971 H       1  LIG   0.1568   0.1500 
33    H9       1.0604    7.1643   -2.7292 H       1  LIG   0.1591   0.1500 
34    H10      2.0551    4.9411   -2.2662 H       1  LIG   0.1559   0.1500 
35    H11      0.6064    2.9688   -1.9646 H       1  LIG   0.1294   0.1500 
36    H12     -1.2881    4.7070    0.4934 H       1  LIG   0.1268   0.0000 
37    H13     -2.6023    4.2936    1.6343 H       1  LIG   0.1103   0.0000 
38    H14     -1.0061    2.8771    2.9498 H       1  LIG   0.0920   0.0000 
39    H15      0.2973    3.2655    1.8037 H       1  LIG   0.0921   0.0000 
40    H16     -1.3635    6.4145    2.3031 H       1  LIG   0.0647   0.1500 
41    H17      2.2879    7.8195    7.0068 H       1  LIG   0.0965   0.0000 
42    H18      1.9199    8.3547    5.3515 H       1  LIG   0.0603   0.0000 
43    H19      0.5932    7.9827    6.4936 H       1  LIG   0.0611   0.0000 
44    H20      2.9814    2.0144    5.9214 H       1  LIG   0.0825   0.0000 
45    H21      4.1502    3.3048    6.3051 H       1  LIG   0.0663   0.0000 
46    H22      2.8362    2.9372    7.4399 H       1  LIG   0.0662   0.0000 
47    N5      -1.9494    2.7037    0.4257 N.4     1  LIG  -0.7609  -0.9060 
48    H23     -2.3266    2.0101    1.0872 H       1  LIG   0.4510   0.4500 
49    H24     -1.0689    2.2920    0.0855 H       1  LIG   0.4566   0.4500 
@<TRIPOS>BOND
1     1     2     1
2     1     25    1
3     1     26    1
4     1     27    1
5     2     3     1
6     2     28    1
7     2     47    1
8     3     4     1
9     3     29    1
10    3     30    1
11    4     9     ar
12    4     5     ar
13    5     6     ar
14    5     31    1
15    6     7     ar
16    6     32    1
17    7     8     ar
18    7     33    1
19    8     9     ar
20    8     34    1
21    9     35    1
22    10    11    1
23    10    36    1
24    10    37    1
25    10    47    1
26    11    12    1
27    11    38    1
28    11    39    1
29    12    16    1
30    12    13    1
31    13    14    2
32    13    40    1
33    14    15    1
34    15    22    1
35    15    16    2
36    16    17    1
37    17    18    2
38    17    19    am
39    19    20    am
40    19    24    1
41    20    21    2
42    20    22    am
43    22    23    1
44    23    41    1
45    23    42    1
46    23    43    1
47    24    44    1
48    24    45    1
49    24    46    1
50    47    48    1
51    47    49    1
@<TRIPOS>SUBSTRUCTURE
1   LIG    1    
 
########## Number      : 38
########## Name        : ZINC00000296
########## Description : AM1BCC_CHARGES =   0.0001 ORIGINAL_CHARGES =  -0.0000

@<TRIPOS>MOLECULE
ZINC00000296
31    32    1     0     0    
SMALL
USER_CHARGES
****
****
@<TRIPOS>ATOM
1     C1      -0.2815    7.4570    6.9372 C.3     1  LIG  -0.1043   0.0000 
2     C2       0.6510    7.9621    8.0344 C.3     1  LIG  -0.0664   0.0000 
3     C3       1.1675    6.8335    8.9488 C.3     1  LIG  -0.1321   0.0610 
4     C4       2.2719    6.0368    8.3065 C.2     1  LIG   0.7012   0.5690 
5     O1       2.3377    5.6920    7.1373 O.2     1  LIG  -0.5883  -0.5700 
6     N1       3.1763    5.7175    9.2946 N.am    1  LIG  -0.6149  -0.4900 
7     C5       2.9615    6.3391   10.5045 C.2     1  LIG   0.7006   0.5690 
8     O2       3.6256    6.2006   11.5205 O.2     1  LIG  -0.5773  -0.5700 
9     C6       1.7830    7.2686   10.3249 C.3     1  LIG  -0.0650   0.2045 
10    C7       0.7587    7.0015   11.4473 C.3     1  LIG  -0.0882   0.0000 
11    C8       2.2401    8.7504   10.3315 C.ar    1  LIG  -0.0734  -0.1435 
12    C9       3.4284    9.1281    9.6721 C.ar    1  LIG  -0.1193  -0.1500 
13    C10      3.8615   10.4570    9.6510 C.ar    1  LIG  -0.1240  -0.1500 
14    C11      3.1155   11.4439   10.2845 C.ar    1  LIG  -0.1214  -0.1500 
15    C12      1.9353   11.1015   10.9350 C.ar    1  LIG  -0.1287  -0.1500 
16    C13      1.5012    9.7717   10.9565 C.ar    1  LIG  -0.1178  -0.1500 
17    H1       3.9678    5.1068    9.1313 H       1  LIG   0.3447   0.3700 
18    H2      -0.6594    8.3009    6.3509 H       1  LIG   0.0401   0.0000 
19    H3       0.2278    6.7774    6.2492 H       1  LIG   0.0629   0.0000 
20    H4      -1.1425    6.9332    7.3647 H       1  LIG   0.0315   0.0000 
21    H5       0.0828    8.6881    8.6269 H       1  LIG   0.0557   0.0000 
22    H6       1.4840    8.4937    7.5603 H       1  LIG   0.0562   0.0000 
23    H7       0.2886    6.2014    9.1590 H       1  LIG   0.0909   0.0000 
24    H8       1.1329    7.3307   12.4241 H       1  LIG   0.0668   0.0000 
25    H9      -0.2005    7.4954   11.2559 H       1  LIG   0.0467   0.0000 
26    H10      0.5540    5.9274   11.5387 H       1  LIG   0.0467   0.0000 
27    H11      4.0388    8.3925    9.1543 H       1  LIG   0.1357   0.1500 
28    H12      4.7817   10.7182    9.1360 H       1  LIG   0.1368   0.1500 
29    H13      3.4502   12.4767   10.2682 H       1  LIG   0.1354   0.1500 
30    H14      1.3451   11.8699   11.4267 H       1  LIG   0.1347   0.1500 
31    H15      0.5664    9.5641   11.4685 H       1  LIG   0.1346   0.1500 
@<TRIPOS>BOND
1     1     2     1
2     1     18    1
3     1     19    1
4     1     20    1
5     2     3     1
6     2     21    1
7     2     22    1
8     3     9     1
9     3     4     1
10    3     23    1
11    4     5     2
12    4     6     am
13    6     7     am
14    6     17    1
15    7     8     2
16    7     9     1
17    9     10    1
18    9     11    1
19    10    24    1
20    10    25    1
21    10    26    1
22    11    16    ar
23    11    12    ar
24    12    13    ar
25    12    27    1
26    13    14    ar
27    13    28    1
28    14    15    ar
29    14    29    1
30    15    16    ar
31    15    30    1
32    16    31    1
@<TRIPOS>SUBSTRUCTURE
1   LIG    1    
 
########## Number      : 39
########## Name        : ZINC00000298
########## Description : AM1BCC_CHARGES =   0.0000 ORIGINAL_CHARGES =  -0.0000

@<TRIPOS>MOLECULE
ZINC00000298
27    28    1     0     0    
SMALL
USER_CHARGES
****
****
@<TRIPOS>ATOM
1     C1       4.0261   -4.9181   -1.4987 C.3     1  LIG  -0.1117   0.0000 
2     C2       2.9192   -5.8751   -1.0423 C.3     1  LIG   0.0850   0.3001 
3     C3       2.5844   -5.6920    0.4541 C.3     1  LIG   0.1760   0.4235 
4     O1       1.6314   -6.6855    0.8158 O.3     1  LIG  -0.4011  -0.5600 
5     C4       2.1929   -7.9814    0.7538 C.3     1  LIG   0.0592   0.3410 
6     C5       2.9098   -8.3219   -0.5422 C.2     1  LIG   0.6689   0.5690 
7     O2       3.1434   -9.4864   -0.8621 O.2     1  LIG  -0.6436  -0.5700 
8     N1       3.3402   -7.2453   -1.2841 N.am    1  LIG  -0.5740  -0.7301 
9     C6       1.9897   -4.3282    0.7624 C.ar    1  LIG  -0.0908  -0.1435 
10    C7       0.7261   -3.9590    0.2749 C.ar    1  LIG  -0.0993  -0.1500 
11    C8       0.1927   -2.7010    0.5609 C.ar    1  LIG  -0.1328  -0.1500 
12    C9       0.9140   -1.7972    1.3377 C.ar    1  LIG  -0.1197  -0.1500 
13    C10      2.1683   -2.1507    1.8303 C.ar    1  LIG  -0.1332  -0.1500 
14    C11      2.7035   -3.4085    1.5457 C.ar    1  LIG  -0.1160  -0.1500 
15    H1       3.8201   -7.4548   -2.1540 H       1  LIG   0.3252   0.3700 
16    H2       3.7208   -3.8718   -1.4021 H       1  LIG   0.0585   0.0000 
17    H3       4.9418   -5.0654   -0.9152 H       1  LIG   0.0455   0.0000 
18    H4       4.2764   -5.0928   -2.5511 H       1  LIG   0.0442   0.0000 
19    H5       2.0296   -5.6573   -1.6562 H       1  LIG   0.0563   0.0000 
20    H6       3.5060   -5.7955    1.0529 H       1  LIG   0.0553   0.0000 
21    H7       2.9001   -8.1088    1.5814 H       1  LIG   0.0640   0.0000 
22    H8       1.3791   -8.7006    0.8910 H       1  LIG   0.1040   0.0000 
23    H9       0.1460   -4.6520   -0.3297 H       1  LIG   0.1443   0.1500 
24    H10     -0.7864   -2.4276    0.1781 H       1  LIG   0.1353   0.1500 
25    H11      0.4984   -0.8186    1.5601 H       1  LIG   0.1338   0.1500 
26    H12      2.7311   -1.4468    2.4368 H       1  LIG   0.1342   0.1500 
27    H13      3.6847   -3.6629    1.9391 H       1  LIG   0.1325   0.1500 
@<TRIPOS>BOND
1     1     2     1
2     1     16    1
3     1     17    1
4     1     18    1
5     2     8     1
6     2     3     1
7     2     19    1
8     3     4     1
9     3     9     1
10    3     20    1
11    4     5     1
12    5     6     1
13    5     21    1
14    5     22    1
15    6     7     2
16    6     8     am
17    8     15    1
18    9     14    ar
19    9     10    ar
20    10    11    ar
21    10    23    1
22    11    12    ar
23    11    24    1
24    12    13    ar
25    12    25    1
26    13    14    ar
27    13    26    1
28    14    27    1
@<TRIPOS>SUBSTRUCTURE
1   LIG    1    
 
########## Number      : 40
########## Name        : ZINC00000300
########## Description : AM1BCC_CHARGES =  -1.0000 ORIGINAL_CHARGES =  -1.0000

@<TRIPOS>MOLECULE
ZINC00000300
32    33    1     0     0    
SMALL
USER_CHARGES
****
****
@<TRIPOS>ATOM
1     C1       3.9672   -8.2955   -0.5128 C.3     1  LIG  -0.1074   0.0000 
2     C2       4.2132   -8.1358    0.9858 C.3     1  LIG  -0.0073   0.1740 
3     C3       4.2958   -9.4744    1.7408 C.2     1  LIG   0.9323   0.9060 
4     O1       4.3407  -10.5209    1.0360 O.co2   1  LIG  -0.8134  -0.9000 
5     O2       5.4701   -7.4824    1.1782 O.3     1  LIG  -0.2849  -0.3625 
6     C4       5.5062   -6.1213    1.3077 C.ar    1  LIG   0.1734   0.0825 
7     C5       4.4611   -5.2372    1.0323 C.ar    1  LIG  -0.2166  -0.1500 
8     C6       4.6408   -3.8609    1.2002 C.ar    1  LIG  -0.0912  -0.1500 
9     C7       5.8624   -3.3644    1.6542 C.ar    1  LIG  -0.0038   0.0825 
10    C8       6.9230   -4.2367    1.9016 C.ar    1  LIG  -0.1138  -0.1500 
11    C9       6.7388   -5.6099    1.7322 C.ar    1  LIG  -0.1707  -0.1500 
12    O3       5.9835   -1.9976    1.7652 O.3     1  LIG  -0.2542  -0.1650 
13    C10      6.5484   -1.5087    2.9222 C.ar    1  LIG   0.1279   0.0825 
14    C11      6.1376   -1.9218    4.1938 C.ar    1  LIG  -0.1641  -0.1500 
15    C12      6.7240   -1.3586    5.3279 C.ar    1  LIG  -0.0975  -0.1500 
16    C13      7.7046   -0.3761    5.1851 C.ar    1  LIG  -0.0176   0.1770 
17    C14      8.0997    0.0535    3.9177 C.ar    1  LIG  -0.1073  -0.1500 
18    C15      7.5139   -0.5093    2.7836 C.ar    1  LIG  -0.1535  -0.1500 
19    Cl1      8.4266    0.3192    6.5855 Cl      1  LIG  -0.1181  -0.1770 
20    H1       3.8922   -7.3226   -1.0084 H       1  LIG  -0.0004   0.0000 
21    H2       4.7982   -8.8242   -0.9936 H       1  LIG   0.0689   0.0000 
22    H3       3.0444   -8.8517   -0.7061 H       1  LIG   0.0338   0.0000 
23    H4       3.3703   -7.5752    1.4173 H       1  LIG   0.0344   0.0000 
24    H5       3.4969   -5.5797    0.6718 H       1  LIG   0.1494   0.1500 
25    H6       3.8216   -3.1823    0.9773 H       1  LIG   0.1331   0.1500 
26    H7       7.8937   -3.8659    2.2175 H       1  LIG   0.1325   0.1500 
27    H8       7.5673   -6.2855    1.9328 H       1  LIG   0.1519   0.1500 
28    H9       5.3615   -2.6724    4.3150 H       1  LIG   0.1635   0.1500 
29    H10      6.4050   -1.6887    6.3130 H       1  LIG   0.1463   0.1500 
30    H11      8.8569    0.8242    3.8009 H       1  LIG   0.1397   0.1500 
31    H12      7.8167   -0.1708    1.7964 H       1  LIG   0.1490   0.1500 
32    O4       4.2999   -9.3623    3.0020 O.co2   1  LIG  -0.8143  -0.9000 
@<TRIPOS>BOND
1     1     2     1
2     1     20    1
3     1     21    1
4     1     22    1
5     2     3     1
6     2     5     1
7     2     23    1
8     3     4     2
9     3     32    1
10    5     6     1
11    6     11    ar
12    6     7     ar
13    7     8     ar
14    7     24    1
15    8     9     ar
16    8     25    1
17    9     10    ar
18    9     12    1
19    10    11    ar
20    10    26    1
21    11    27    1
22    12    13    1
23    13    18    ar
24    13    14    ar
25    14    15    ar
26    14    28    1
27    15    16    ar
28    15    29    1
29    16    17    ar
30    16    19    1
31    17    18    ar
32    17    30    1
33    18    31    1
@<TRIPOS>SUBSTRUCTURE
1   LIG    1    
 
########## Number      : 41
########## Name        : ZINC00000306
########## Description : AM1BCC_CHARGES =   0.0000 ORIGINAL_CHARGES =  -0.0000

@<TRIPOS>MOLECULE
ZINC00000306
29    30    1     0     0    
SMALL
USER_CHARGES
****
****
@<TRIPOS>ATOM
1     C1       4.2152   -9.7168    0.3381 C.ar    1  LIG  -0.1225  -0.1500 
2     C2       4.2511   -9.2843   -0.9858 C.ar    1  LIG  -0.1331  -0.1500 
3     C3       4.3813   -7.9246   -1.2753 C.ar    1  LIG  -0.1211  -0.1500 
4     C4       4.4805   -6.9807   -0.2422 C.ar    1  LIG  -0.0917  -0.1435 
5     C5       4.4385   -7.4303    1.0870 C.ar    1  LIG  -0.0948  -0.1500 
6     C6       4.3083   -8.7903    1.3743 C.ar    1  LIG  -0.1339  -0.1500 
7     C7       4.6054   -5.5047   -0.5703 C.3     1  LIG   0.1859   0.4235 
8     C8       3.3004   -4.7594   -0.2495 C.3     1  LIG   0.1600   0.3691 
9     N1       3.3506   -3.4181   -0.8019 N.pl3   1  LIG  -0.8378  -0.8691 
10    C9       2.3353   -2.5043   -0.5786 C.ar    1  LIG   0.8618   0.7200 
11    N2       1.2957   -2.8243    0.2270 N.ar    1  LIG  -0.7408  -0.6200 
12    C10      0.3398   -1.8878    0.4024 C.ar    1  LIG   0.4620   0.1600 
13    C11      0.3707   -0.6472   -0.1871 C.ar    1  LIG  -0.4187  -0.1500 
14    C12      1.4617   -0.4093   -0.9877 C.ar    1  LIG   0.4630   0.1600 
15    N3       2.4467   -1.3078   -1.1989 N.ar    1  LIG  -0.7460  -0.6200 
16    O1       5.6613   -4.9524    0.2046 O.3     1  LIG  -0.5940  -0.6800 
17    H1       4.0750   -3.1470   -1.4546 H       1  LIG   0.4249   0.4000 
18    H2       5.6569   -3.9906    0.0607 H       1  LIG   0.4132   0.4000 
19    H3       4.1137  -10.7747    0.5621 H       1  LIG   0.1316   0.1500 
20    H4       4.1765  -10.0059   -1.7945 H       1  LIG   0.1318   0.1500 
21    H5       4.4035   -7.6083   -2.3154 H       1  LIG   0.1292   0.1500 
22    H6       4.5085   -6.7220    1.9092 H       1  LIG   0.1494   0.1500 
23    H7       4.2792   -9.1257    2.4071 H       1  LIG   0.1339   0.1500 
24    H8       4.8428   -5.4123   -1.6424 H       1  LIG   0.0391   0.0000 
25    H9       2.4437   -5.2943   -0.6776 H       1  LIG   0.0485   0.0000 
26    H10      3.1628   -4.7015    0.8377 H       1  LIG   0.0920   0.0000 
27    H11     -0.4777   -2.1784    1.0538 H       1  LIG   0.0267   0.1500 
28    H12     -0.4066    0.0880   -0.0324 H       1  LIG   0.1550   0.1500 
29    H13      1.5837    0.5390   -1.5006 H       1  LIG   0.0264   0.1500 
@<TRIPOS>BOND
1     1     6     ar
2     1     2     ar
3     1     19    1
4     2     3     ar
5     2     20    1
6     3     4     ar
7     3     21    1
8     4     5     ar
9     4     7     1
10    5     6     ar
11    5     22    1
12    6     23    1
13    7     8     1
14    7     16    1
15    7     24    1
16    8     9     1
17    8     25    1
18    8     26    1
19    9     10    1
20    9     17    1
21    10    15    ar
22    10    11    ar
23    11    12    ar
24    12    13    ar
25    12    27    1
26    13    14    ar
27    13    28    1
28    14    15    ar
29    14    29    1
30    16    18    1
@<TRIPOS>SUBSTRUCTURE
1   LIG    1    
 
########## Number      : 42
########## Name        : ZINC00000312
########## Description : AM1BCC_CHARGES =   1.0000 ORIGINAL_CHARGES =   1.0000

@<TRIPOS>MOLECULE
ZINC00000312
35    37    1     0     0    
SMALL
USER_CHARGES
****
****
@<TRIPOS>ATOM
1     C1      -4.3998    0.4981   -3.3679 C.3     1  LIG   0.0810   0.5030 
2     C2      -6.1804    1.3536   -1.8942 C.3     1  LIG   0.0817   0.5030 
3     C3      -3.9652    0.6738   -0.8671 C.3     1  LIG   0.1299   0.5030 
4     C4      -2.4273    0.6278   -1.1260 C.3     1  LIG  -0.0945   0.0000 
5     C5      -1.6431    0.0427    0.0649 C.3     1  LIG  -0.0203   0.1800 
6     C6      -2.1492    0.6212    1.3312 C.2     1  LIG  -0.0427  -0.3316 
7     C7      -3.3396    1.2919    1.5015 C.2     1  LIG  -0.1878  -0.1810 
8     C8      -3.4308    1.6541    2.8754 C.ar    1  LIG  -0.0280   0.0000 
9     C9      -4.3814    2.3446    3.6547 C.ar    1  LIG  -0.1561  -0.1500 
10    C10     -4.1338    2.5219    5.0199 C.ar    1  LIG   0.1535   0.1900 
11    C11     -2.9809    2.0386    5.6257 C.ar    1  LIG  -0.1787  -0.1500 
12    C12     -2.0361    1.3570    4.8638 C.ar    1  LIG   0.1592   0.1900 
13    C13     -2.2730    1.1745    3.4989 C.ar    1  LIG  -0.0956  -0.1516 
14    N1      -1.5118    0.5488    2.5366 N.pl3   1  LIG  -0.1447   0.0332 
15    F1      -0.9209    0.8885    5.4391 F       1  LIG  -0.1226  -0.1900 
16    F2      -5.0365    3.1775    5.7636 F       1  LIG  -0.1236  -0.1900 
17    C14     -4.2777    1.5579    0.3737 C.3     1  LIG  -0.0048   0.1810 
18    H1      -0.6190    0.1049    2.7046 H       1  LIG   0.3235   0.2700 
19    H2      -5.0422    0.9011   -4.1560 H       1  LIG   0.1040   0.0000 
20    H3      -3.3598    0.6710   -3.6510 H       1  LIG   0.1043   0.0000 
21    H4      -4.6054   -0.5625   -3.2021 H       1  LIG   0.1060   0.0000 
22    H5      -6.6239    1.7168   -2.8256 H       1  LIG   0.1023   0.0000 
23    H6      -6.5663    0.3638   -1.6369 H       1  LIG   0.1067   0.0000 
24    H7      -6.3832    2.0817   -1.1064 H       1  LIG   0.1086   0.0000 
25    H8      -4.2979   -0.3652   -0.6937 H       1  LIG   0.1087   0.0000 
26    H9      -2.1880    0.0138   -2.0000 H       1  LIG   0.0626   0.0000 
27    H10     -2.0666    1.6438   -1.3356 H       1  LIG   0.0759   0.0000 
28    H11     -1.7755   -1.0455    0.0892 H       1  LIG   0.0756   0.0000 
29    H12     -0.5739    0.2452   -0.0613 H       1  LIG   0.0881   0.0000 
30    H13     -5.2927    2.7349    3.2120 H       1  LIG   0.1519   0.1500 
31    H14     -2.8165    2.1917    6.6875 H       1  LIG   0.1805   0.1500 
32    H15     -4.2047    2.6210    0.1108 H       1  LIG   0.0611   0.0000 
33    H16     -5.3015    1.3681    0.7165 H       1  LIG   0.0698   0.0000 
34    N2      -4.6830    1.2494   -2.0867 N.4     1  LIG  -0.6831  -0.9590 
35    H17     -4.3361    2.2082   -2.2272 H       1  LIG   0.4476   0.4500 
@<TRIPOS>BOND
1     1     19    1
2     1     20    1
3     1     21    1
4     1     34    1
5     2     22    1
6     2     23    1
7     2     24    1
8     2     34    1
9     3     17    1
10    3     4     1
11    3     25    1
12    3     34    1
13    4     5     1
14    4     26    1
15    4     27    1
16    5     6     1
17    5     28    1
18    5     29    1
19    6     14    1
20    6     7     2
21    7     8     1
22    7     17    1
23    8     13    ar
24    8     9     ar
25    9     10    ar
26    9     30    1
27    10    11    ar
28    10    16    1
29    11    12    ar
30    11    31    1
31    12    13    ar
32    12    15    1
33    13    14    1
34    14    18    1
35    17    32    1
36    17    33    1
37    34    35    1
@<TRIPOS>SUBSTRUCTURE
1   LIG    1    
 
########## Number      : 43
########## Name        : ZINC00000321
########## Description : AM1BCC_CHARGES =   0.0002 ORIGINAL_CHARGES =   0.0000

@<TRIPOS>MOLECULE
ZINC00000321
53    56    1     0     0    
SMALL
USER_CHARGES
****
****
@<TRIPOS>ATOM
1     C1      -2.1440   -2.2464   -0.0779 C.3     1  LIG  -0.0922   0.0000 
2     C2      -1.8879   -0.7553   -0.3957 C.3     1  LIG  -0.0246   0.1382 
3     C3      -2.8860    0.0961    0.4446 C.3     1  LIG  -0.0764   0.0000 
4     C4      -2.5424    0.1517    1.9256 C.3     1  LIG  -0.1788   0.0610 
5     C5      -1.1277    0.6277    2.1254 C.2     1  LIG   0.5707   0.4946 
6     O1      -0.7898    1.2531    3.1285 O.2     1  LIG  -0.5372  -0.5700 
7     C6      -0.1104    0.2540    1.1160 C.2     1  LIG  -0.2579  -0.1356 
8     C7      -0.4381   -0.4081   -0.0068 C.2     1  LIG  -0.0297  -0.2764 
9     C8       0.6651   -0.8414   -0.9560 C.3     1  LIG  -0.0534   0.1382 
10    C9       0.3642   -0.5721   -2.4379 C.3     1  LIG  -0.0696   0.0000 
11    C10     -1.0118   -1.1470   -2.7919 C.3     1  LIG  -0.0744   0.0000 
12    C11     -2.0763   -0.4016   -1.9237 C.3     1  LIG   0.1711   0.3400 
13    C12     -3.4862   -0.6840   -2.5036 C.3     1  LIG   0.1361   0.2800 
14    C13     -3.6259   -0.0506   -3.9182 C.3     1  LIG  -0.0997   0.0000 
15    C14     -2.3300   -0.0852   -4.7878 C.3     1  LIG  -0.0280   0.0000 
16    C15     -1.4176   -1.2148   -4.2810 C.3     1  LIG  -0.0645   0.0000 
17    C16     -0.3532   -1.3044   -5.3757 C.3     1  LIG  -0.0667   0.0000 
18    C17     -1.1364   -0.9960   -6.6831 C.3     1  LIG  -0.1069   0.0000 
19    C18     -2.5604   -0.5204   -6.2587 C.3     1  LIG   0.1459   0.2800 
20    C19     -3.1437    0.5360   -7.1914 C.3     1  LIG  -0.1153   0.0000 
21    O2      -3.4382   -1.6517   -6.2903 O.3     1  LIG  -0.6083  -0.6800 
22    C20     -1.6475    1.3149   -4.7548 C.3     1  LIG  -0.0964   0.0000 
23    O3      -3.7031   -2.0855   -2.5936 O.3     1  LIG  -0.6001  -0.6800 
24    F1      -1.8768    0.9461   -2.0177 F       1  LIG  -0.2370  -0.3400 
25    H1      -3.4820   -1.9725   -7.2073 H       1  LIG   0.4032   0.4000 
26    H2      -4.5797   -2.2256   -2.9905 H       1  LIG   0.4173   0.4000 
27    H3      -1.5501   -2.9287   -0.6907 H       1  LIG   0.0362   0.0000 
28    H4      -1.8869   -2.4778    0.9629 H       1  LIG   0.0389   0.0000 
29    H5      -3.1983   -2.5120   -0.2030 H       1  LIG   0.0748   0.0000 
30    H6      -2.9028    1.1271    0.0658 H       1  LIG   0.0628   0.0000 
31    H7      -3.9078   -0.2873    0.3378 H       1  LIG   0.0557   0.0000 
32    H8      -3.2184    0.8562    2.4229 H       1  LIG   0.0739   0.0000 
33    H9      -2.6561   -0.8242    2.4076 H       1  LIG   0.0698   0.0000 
34    H10      0.9181    0.5021    1.3566 H       1  LIG   0.1470   0.1500 
35    H11      1.6164   -0.3565   -0.7040 H       1  LIG   0.0565   0.0000 
36    H12      0.8253   -1.9187   -0.8180 H       1  LIG   0.0547   0.0000 
37    H13      0.4180    0.5019   -2.6429 H       1  LIG   0.0626   0.0000 
38    H14      1.1454   -1.0514   -3.0385 H       1  LIG   0.0488   0.0000 
39    H15     -0.9256   -2.2117   -2.5113 H       1  LIG   0.0635   0.0000 
40    H16     -4.2700   -0.2273   -1.8836 H       1  LIG   0.0746   0.0000 
41    H17     -4.4580   -0.5394   -4.4372 H       1  LIG   0.0778   0.0000 
42    H18     -3.9405    0.9933   -3.7901 H       1  LIG   0.0598   0.0000 
43    H19     -1.9242   -2.1993   -4.3450 H       1  LIG   0.0520   0.0000 
44    H20      0.4429   -0.5648   -5.2401 H       1  LIG   0.0483   0.0000 
45    H21      0.1135   -2.2940   -5.4139 H       1  LIG   0.0462   0.0000 
46    H22     -0.5994   -0.2243   -7.2463 H       1  LIG   0.0506   0.0000 
47    H23     -1.1851   -1.8945   -7.3085 H       1  LIG   0.0481   0.0000 
48    H24     -3.3200    0.1151   -8.1881 H       1  LIG   0.0345   0.0000 
49    H25     -4.1161    0.8811   -6.8231 H       1  LIG   0.0513   0.0000 
50    H26     -2.4887    1.4037   -7.3104 H       1  LIG   0.0514   0.0000 
51    H27     -2.3745    2.1062   -4.9719 H       1  LIG   0.0369   0.0000 
52    H28     -1.1727    1.5685   -3.8123 H       1  LIG   0.0631   0.0000 
53    H29     -0.8572    1.4071   -5.5077 H       1  LIG   0.0332   0.0000 
@<TRIPOS>BOND
1     1     2     1
2     1     27    1
3     1     28    1
4     1     29    1
5     2     8     1
6     2     12    1
7     2     3     1
8     3     4     1
9     3     30    1
10    3     31    1
11    4     5     1
12    4     32    1
13    4     33    1
14    5     6     2
15    5     7     1
16    7     8     2
17    7     34    1
18    8     9     1
19    9     10    1
20    9     35    1
21    9     36    1
22    10    11    1
23    10    37    1
24    10    38    1
25    11    16    1
26    11    12    1
27    11    39    1
28    12    13    1
29    12    24    1
30    13    14    1
31    13    23    1
32    13    40    1
33    14    15    1
34    14    41    1
35    14    42    1
36    15    19    1
37    15    16    1
38    15    22    1
39    16    17    1
40    16    43    1
41    17    18    1
42    17    44    1
43    17    45    1
44    18    19    1
45    18    46    1
46    18    47    1
47    19    20    1
48    19    21    1
49    20    48    1
50    20    49    1
51    20    50    1
52    21    25    1
53    22    51    1
54    22    52    1
55    22    53    1
56    23    26    1
@<TRIPOS>SUBSTRUCTURE
1   LIG    1    
 
########## Number      : 44
########## Name        : ZINC00000323
########## Description : AM1BCC_CHARGES =  -1.0000 ORIGINAL_CHARGES =  -1.0000

@<TRIPOS>MOLECULE
ZINC00000323
30    31    1     0     0    
SMALL
USER_CHARGES
****
****
@<TRIPOS>ATOM
1     C1       6.1888   -7.7866    2.1491 C.3     1  LIG  -0.0615   0.0000 
2     C2       6.4281   -6.2858    1.9409 C.3     1  LIG  -0.1787   0.0375 
3     C3       5.1334   -5.5364    1.7015 C.ar    1  LIG   0.0269  -0.1435 
4     C4       4.0713   -5.5719    2.6153 C.ar    1  LIG  -0.1353  -0.1500 
5     C5       2.8883   -4.8635    2.3716 C.ar    1  LIG  -0.1037  -0.1500 
6     C6       2.7274   -4.0920    1.2099 C.ar    1  LIG  -0.1229   0.0000 
7     C7       3.8007   -4.0620    0.3080 C.ar    1  LIG   0.1235   0.1900 
8     C8       4.9839   -4.7655    0.5428 C.ar    1  LIG  -0.1834  -0.1500 
9     F1       3.7043   -3.3535   -0.8286 F       1  LIG  -0.1628  -0.1900 
10    C9       1.4808   -3.3470    0.9606 C.ar    1  LIG   0.0003   0.0000 
11    C10      0.2280   -3.9793    1.0513 C.ar    1  LIG  -0.1272  -0.1500 
12    C11     -0.9555   -3.2733    0.8186 C.ar    1  LIG  -0.1384  -0.1500 
13    C12     -0.9089   -1.9209    0.4922 C.ar    1  LIG  -0.1467  -0.1500 
14    C13      0.3201   -1.2741    0.3983 C.ar    1  LIG  -0.1356  -0.1500 
15    C14      1.5034   -1.9804    0.6306 C.ar    1  LIG  -0.1152  -0.1500 
16    C15      7.1351   -5.6521    3.1483 C.2     1  LIG   0.9254   0.9060 
17    O1       7.0162   -6.2458    4.2565 O.co2   1  LIG  -0.8358  -0.9000 
18    H1       5.6974   -8.2244    1.2727 H       1  LIG  -0.0073   0.0000 
19    H2       7.1405   -8.3094    2.2967 H       1  LIG   0.0262   0.0000 
20    H3       5.5582   -8.0017    3.0186 H       1  LIG   0.0482   0.0000 
21    H4       7.0638   -6.2294    1.0414 H       1  LIG   0.0474   0.0000 
22    H5       4.1547   -6.1457    3.5354 H       1  LIG   0.1766   0.1500 
23    H6       2.0946   -4.9140    3.1147 H       1  LIG   0.1231   0.1500 
24    H7       5.7853   -4.7053   -0.1889 H       1  LIG   0.1420   0.1500 
25    H8       0.1608   -5.0374    1.2967 H       1  LIG   0.1338   0.1500 
26    H9      -1.9126   -3.7819    0.8913 H       1  LIG   0.1186   0.1500 
27    H10     -1.8285   -1.3721    0.3115 H       1  LIG   0.1172   0.1500 
28    H11      0.3606   -0.2183    0.1458 H       1  LIG   0.1209   0.1500 
29    H12      2.4491   -1.4468    0.5579 H       1  LIG   0.1437   0.1500 
30    O2       7.7734   -4.5918    2.8791 O.co2   1  LIG  -0.8193  -0.9000 
@<TRIPOS>BOND
1     1     2     1
2     1     18    1
3     1     19    1
4     1     20    1
5     2     3     1
6     2     16    1
7     2     21    1
8     3     8     ar
9     3     4     ar
10    4     5     ar
11    4     22    1
12    5     6     ar
13    5     23    1
14    6     7     ar
15    6     10    1
16    7     8     ar
17    7     9     1
18    8     24    1
19    10    15    ar
20    10    11    ar
21    11    12    ar
22    11    25    1
23    12    13    ar
24    12    26    1
25    13    14    ar
26    13    27    1
27    14    15    ar
28    14    28    1
29    15    29    1
30    16    17    2
31    16    30    1
@<TRIPOS>SUBSTRUCTURE
1   LIG    1    
 
########## Number      : 45
########## Name        : ZINC00000330
########## Description : AM1BCC_CHARGES =   0.9999 ORIGINAL_CHARGES =   1.0000

@<TRIPOS>MOLECULE
ZINC00000330
40    42    1     0     0    
SMALL
USER_CHARGES
****
****
@<TRIPOS>ATOM
1     C1      -1.8429   -2.4725    2.5038 C.2     1  LIG  -0.2289  -0.1500 
2     C2      -2.3545   -1.8053    3.6461 C.2     1  LIG  -0.1472  -0.1500 
3     C3      -2.5272   -0.5043    3.2494 C.2     1  LIG   0.1553   0.2200 
4     O1      -2.1658   -0.3106    1.9585 O.3     1  LIG  -0.2801  -0.2800 
5     C4      -1.7426   -1.5281    1.4977 C.2     1  LIG   0.2310   0.0550 
6     C5      -1.2906   -1.6405    0.1414 C.2     1  LIG   0.3117   0.4750 
7     N1      -1.2801   -0.6096   -0.6365 N.2     1  LIG  -0.3889  -0.5120 
8     N2      -0.8475   -0.7660   -1.9108 N.am    1  LIG  -0.2043  -0.2981 
9     C6      -0.3545   -1.9513   -2.5348 C.3     1  LIG   0.0098   0.3001 
10    C7      -0.1869   -1.5062   -3.9793 C.3     1  LIG   0.1098   0.2800 
11    O2      -0.2448   -0.0792   -3.9570 O.3     1  LIG  -0.4362  -0.4300 
12    C8      -0.7404    0.3289   -2.7438 C.2     1  LIG   0.8312   0.7800 
13    O3      -1.0113    1.4948   -2.4929 O.2     1  LIG  -0.4729  -0.5700 
14    C9       1.1589   -1.9696   -4.5529 C.3     1  LIG   0.0920   0.5030 
15    C10      2.3603   -2.6981   -6.6223 C.3     1  LIG   0.0679   0.5030 
16    C11      2.3085   -2.6796   -8.1415 C.3     1  LIG   0.1009   0.2800 
17    O4       2.3265   -1.3368   -8.6247 O.3     1  LIG  -0.3693  -0.5600 
18    C12      1.1792   -0.6159   -8.1769 C.3     1  LIG   0.0966   0.2800 
19    C13      1.1531   -0.5241   -6.6570 C.3     1  LIG   0.0682   0.5030 
20    N3      -3.0047    0.6436    3.9335 N.pl3   1  LIG   0.2438   0.9600 
21    O5      -3.3387    0.4829    5.1134 O.2     1  LIG  -0.1752  -0.5200 
22    O6      -3.0500    1.7070    3.3037 O.3     1  LIG  -0.1542  -0.5200 
23    H1      -1.5788   -3.5179    2.4239 H       1  LIG   0.1794   0.1500 
24    H2      -2.5637   -2.2276    4.6188 H       1  LIG   0.2024   0.1500 
25    H3      -0.9596   -2.6434   -0.1772 H       1  LIG   0.0107   0.0600 
26    H4      -1.0720   -2.7729   -2.4510 H       1  LIG   0.0856   0.0000 
27    H5       0.5924   -2.2313   -2.0612 H       1  LIG   0.0872   0.0000 
28    H6      -0.9937   -1.9243   -4.6014 H       1  LIG   0.0970   0.0000 
29    H7       1.3360   -3.0164   -4.2828 H       1  LIG   0.1069   0.0000 
30    H8       1.9942   -1.3501   -4.2082 H       1  LIG   0.1271   0.0000 
31    H9       3.2610   -2.2030   -6.2434 H       1  LIG   0.1178   0.0000 
32    H10      2.2982   -3.7214   -6.2396 H       1  LIG   0.1056   0.0000 
33    H11      3.1875   -3.1900   -8.5474 H       1  LIG   0.1310   0.0000 
34    H12      1.4201   -3.1970   -8.5228 H       1  LIG   0.0656   0.0000 
35    H13      1.2313    0.3899   -8.6056 H       1  LIG   0.1352   0.0000 
36    H14      0.2716   -1.0929   -8.5660 H       1  LIG   0.0660   0.0000 
37    H15      0.2369   -0.0281   -6.3319 H       1  LIG   0.1386   0.0000 
38    H16      2.0350   -0.0049   -6.2674 H       1  LIG   0.1177   0.0000 
39    N4       1.1694   -1.9256   -6.0758 N.4     1  LIG  -0.6789  -0.9590 
40    H17      0.3218   -2.4091   -6.4036 H       1  LIG   0.4440   0.4500 
@<TRIPOS>BOND
1     1     5     2
2     1     2     1
3     1     23    1
4     2     3     2
5     2     24    1
6     3     4     1
7     3     20    1
8     4     5     1
9     5     6     1
10    6     7     2
11    6     25    1
12    7     8     1
13    8     12    am
14    8     9     1
15    9     10    1
16    9     26    1
17    9     27    1
18    10    11    1
19    10    14    1
20    10    28    1
21    11    12    1
22    12    13    2
23    14    29    1
24    14    30    1
25    14    39    1
26    15    16    1
27    15    31    1
28    15    32    1
29    15    39    1
30    16    17    1
31    16    33    1
32    16    34    1
33    17    18    1
34    18    19    1
35    18    35    1
36    18    36    1
37    19    37    1
38    19    38    1
39    19    39    1
40    20    21    2
41    20    22    1
42    39    40    1
@<TRIPOS>SUBSTRUCTURE
1   LIG    1    
 
########## Number      : 46
########## Name        : ZINC00000334
########## Description : AM1BCC_CHARGES =   0.0001 ORIGINAL_CHARGES =   0.0000

@<TRIPOS>MOLECULE
ZINC00000334
26    27    1     0     0    
SMALL
USER_CHARGES
****
****
@<TRIPOS>ATOM
1     C1       5.5882   -9.6336    1.3810 C.3     1  LIG  -0.1146   0.0000 
2     C2       5.3936   -9.0948   -0.0350 C.3     1  LIG   0.1330   0.2800 
3     C3       5.7645   -7.6267   -0.1425 C.3     1  LIG   0.0177   0.3001 
4     N1       4.4802   -7.0000   -0.1382 N.am    1  LIG  -0.2381  -0.2981 
5     C4       3.4675   -7.9221   -0.3262 C.2     1  LIG   0.8425   0.7800 
6     O1       2.2690   -7.7073   -0.4441 O.2     1  LIG  -0.5251  -0.5700 
7     O2       4.0131   -9.1829   -0.3842 O.3     1  LIG  -0.3876  -0.4300 
8     N2       4.1941   -5.6763   -0.0934 N.2     1  LIG  -0.3506  -0.5120 
9     C5       5.1741   -4.8378   -0.0290 C.2     1  LIG   0.2346   0.4750 
10    C6       4.9263   -3.4264    0.0263 C.2     1  LIG   0.2868   0.0550 
11    C7       5.7965   -2.3530    0.0950 C.2     1  LIG  -0.2713  -0.1500 
12    C8       5.0015   -1.1789    0.1262 C.2     1  LIG  -0.1365  -0.1500 
13    C9       3.7064   -1.6260    0.0742 C.2     1  LIG   0.1260   0.2200 
14    O3       3.6333   -2.9771    0.0135 O.3     1  LIG  -0.2828  -0.2800 
15    N3       2.4632   -0.9417    0.0729 N.pl3   1  LIG   0.2460   0.9600 
16    O4       1.4341   -1.6253    0.0179 O.2     1  LIG  -0.1643  -0.5200 
17    O5       2.5135    0.2928    0.1275 O.3     1  LIG  -0.2018  -0.5200 
18    H1       5.2671  -10.6794    1.4345 H       1  LIG   0.0692   0.0000 
19    H2       6.6370   -9.5734    1.6874 H       1  LIG   0.0516   0.0000 
20    H3       4.9783   -9.0803    2.1037 H       1  LIG   0.0556   0.0000 
21    H4       6.0225   -9.6985   -0.7041 H       1  LIG   0.0875   0.0000 
22    H5       6.3954   -7.2774    0.6797 H       1  LIG   0.0666   0.0000 
23    H6       6.2453   -7.4126   -1.1029 H       1  LIG   0.0757   0.0000 
24    H7       6.2339   -5.1436   -0.0170 H       1  LIG   0.0141   0.0600 
25    H8       6.8760   -2.4097    0.1196 H       1  LIG   0.1754   0.1500 
26    H9       5.3398   -0.1537    0.1794 H       1  LIG   0.1905   0.1500 
@<TRIPOS>BOND
1     1     2     1
2     1     18    1
3     1     19    1
4     1     20    1
5     2     7     1
6     2     3     1
7     2     21    1
8     3     4     1
9     3     22    1
10    3     23    1
11    4     5     am
12    4     8     1
13    5     6     2
14    5     7     1
15    8     9     2
16    9     10    1
17    9     24    1
18    10    14    1
19    10    11    2
20    11    12    1
21    11    25    1
22    12    13    2
23    12    26    1
24    13    14    1
25    13    15    1
26    15    16    2
27    15    17    1
@<TRIPOS>SUBSTRUCTURE
1   LIG    1    
 
########## Number      : 47
########## Name        : ZINC00000340
########## Description : AM1BCC_CHARGES =  -0.0001 ORIGINAL_CHARGES =   0.0000

@<TRIPOS>MOLECULE
ZINC00000340
40    42    1     0     0    
SMALL
USER_CHARGES
****
****
@<TRIPOS>ATOM
1     C1       5.8439   -3.5833   -8.4614 C.3     1  LIG  -0.0735   0.1382 
2     C2       5.4332   -3.3655   -7.0272 C.2     1  LIG  -0.0584  -0.0382 
3     N1       4.0730   -3.4146   -6.7913 N.pl3   1  LIG  -0.0152  -0.4580 
4     N2       3.4857   -4.1148   -5.7992 N.2     1  LIG  -0.2661  -0.4920 
5     C3       3.8804   -4.0081   -4.5664 C.2     1  LIG   0.2428   0.2776 
6     C4       4.9068   -3.0623   -4.0246 C.ar    1  LIG  -0.1918   0.0862 
7     C5       4.6827   -2.5195   -2.7449 C.ar    1  LIG  -0.0908  -0.1500 
8     C6       5.6208   -1.6725   -2.1496 C.ar    1  LIG   0.0368   0.0825 
9     C7       6.8181   -1.3915   -2.8007 C.ar    1  LIG   0.1139   0.0825 
10    C8       7.0184   -1.8816   -4.0938 C.ar    1  LIG  -0.1463  -0.1500 
11    C9       6.0662   -2.7054   -4.7275 C.ar    1  LIG   0.0214   0.0284 
12    C10      6.3727   -3.1176   -6.1007 C.2     1  LIG  -0.1846  -0.1784 
13    O1       7.8112   -0.5936   -2.3002 O.3     1  LIG  -0.3386  -0.3625 
14    C11      8.2465   -0.9720   -0.9957 C.3     1  LIG   0.1173   0.2800 
15    O2       5.3348   -1.1726   -0.9073 O.3     1  LIG  -0.3449  -0.3625 
16    C12      4.7115    0.1072   -1.0258 C.3     1  LIG   0.1132   0.2800 
17    C13      3.2135   -4.9404   -3.6061 C.ar    1  LIG  -0.1430   0.0862 
18    C14      1.8207   -5.0743   -3.6344 C.ar    1  LIG  -0.0965  -0.1500 
19    C15      1.1919   -5.9545   -2.7532 C.ar    1  LIG  -0.1300  -0.1500 
20    C16      1.9485   -6.7060   -1.8534 C.ar    1  LIG  -0.1161  -0.1500 
21    C17      3.3381   -6.5783   -1.8409 C.ar    1  LIG   0.0121   0.1770 
22    C18      3.9798   -5.7022   -2.7164 C.ar    1  LIG  -0.1041  -0.1500 
23    Cl1      4.2705   -7.5149   -0.7364 Cl      1  LIG  -0.0929  -0.1770 
24    H1       6.9294   -3.5356   -8.5989 H       1  LIG   0.0570   0.0000 
25    H2       5.5096   -4.5682   -8.8051 H       1  LIG   0.0511   0.0000 
26    H3       5.3942   -2.8204   -9.1060 H       1  LIG   0.0581   0.0000 
27    H4       3.7667   -2.7355   -2.1990 H       1  LIG   0.1564   0.1500 
28    H5       7.9354   -1.6081   -4.6153 H       1  LIG   0.1519   0.1500 
29    H6       3.5151   -3.3681   -7.6415 H       1  LIG   0.2549   0.4000 
30    H7       7.4213   -3.0993   -6.3877 H       1  LIG   0.1389   0.1500 
31    H8       9.2944   -0.6727   -0.8956 H       1  LIG   0.0579   0.0000 
32    H9       7.6748   -0.4345   -0.2338 H       1  LIG   0.0454   0.0000 
33    H10      8.1907   -2.0542   -0.8310 H       1  LIG   0.0393   0.0000 
34    H11      4.4938    0.4679   -0.0161 H       1  LIG   0.0602   0.0000 
35    H12      5.3774    0.8311   -1.5079 H       1  LIG   0.0381   0.0000 
36    H13      3.7647    0.0371   -1.5726 H       1  LIG   0.0326   0.0000 
37    H14      1.2175   -4.4947   -4.3283 H       1  LIG   0.1498   0.1500 
38    H15      0.1102   -6.0556   -2.7685 H       1  LIG   0.1391   0.1500 
39    H16      1.4454   -7.3880   -1.1731 H       1  LIG   0.1477   0.1500 
40    H17      5.0638   -5.6226   -2.7105 H       1  LIG   0.1568   0.1500 
@<TRIPOS>BOND
1     1     25    1
2     1     26    1
3     1     24    1
4     1     2     1
5     2     12    2
6     2     3     1
7     3     4     1
8     3     29    1
9     4     5     2
10    5     6     1
11    5     17    1
12    6     11    ar
13    6     7     ar
14    7     8     ar
15    7     27    1
16    8     9     ar
17    8     15    1
18    9     10    ar
19    9     13    1
20    10    11    ar
21    10    28    1
22    11    12    1
23    12    30    1
24    13    14    1
25    14    31    1
26    14    32    1
27    14    33    1
28    15    16    1
29    16    34    1
30    16    35    1
31    16    36    1
32    17    22    ar
33    17    18    ar
34    18    19    ar
35    18    37    1
36    19    20    ar
37    19    38    1
38    20    21    ar
39    20    39    1
40    21    22    ar
41    21    23    1
42    22    40    1
@<TRIPOS>SUBSTRUCTURE
1   LIG    1    
 
########## Number      : 48
########## Name        : ZINC00000341
########## Description : AM1BCC_CHARGES =   0.9999 ORIGINAL_CHARGES =   1.0000

@<TRIPOS>MOLECULE
ZINC00000341
42    45    1     0     0    
SMALL
USER_CHARGES
****
****
@<TRIPOS>ATOM
1     C1       4.1181   -5.3220   -0.8314 C.3     1  LIG   0.0830   0.5030 
2     C2       4.0600   -7.7448   -0.1605 C.3     1  LIG   0.1142   0.5030 
3     C3       3.4788   -8.7392    0.8618 C.3     1  LIG  -0.0451   0.1435 
4     C4       4.0674   -8.4243    2.2026 C.ar    1  LIG  -0.0747  -0.1435 
5     C5       4.4623   -9.3738    3.1472 C.ar    1  LIG  -0.1490  -0.1500 
6     C6       5.1745   -8.9735    4.2953 C.ar    1  LIG   0.0889   0.0825 
7     C7       5.5321   -7.6217    4.4612 C.ar    1  LIG   0.1651   0.0825 
8     C8       5.1406   -6.6853    3.5195 C.ar    1  LIG  -0.0731  -0.1435 
9     C9       4.3329   -7.0935    2.4582 C.ar    1  LIG  -0.1529  -0.1435 
10    C10      3.9008   -5.9449    1.6216 C.3     1  LIG   0.1786   0.6465 
11    C11      5.1186   -5.0209    1.8377 C.3     1  LIG  -0.0809   0.0000 
12    C12      5.4899   -5.2128    3.3621 C.3     1  LIG   0.0794   0.4199 
13    C13      6.9642   -4.9321    3.5435 C.2     1  LIG  -0.1287  -0.2882 
14    C14      7.4602   -4.0227    4.3908 C.2     1  LIG  -0.1922  -0.1356 
15    C15      6.5590   -3.2072    5.2333 C.2     1  LIG   0.5439   0.5412 
16    O1       7.0038   -2.3687    6.0093 O.2     1  LIG  -0.4814  -0.5700 
17    C16      5.1029   -3.4354    5.1078 C.2     1  LIG  -0.1920  -0.1356 
18    C17      4.6244   -4.3476    4.2531 C.2     1  LIG  -0.1359  -0.2882 
19    O2       6.2738   -7.2212    5.5359 O.3     1  LIG  -0.4666  -0.5325 
20    O3       5.6093   -9.8164    5.2878 O.3     1  LIG  -0.3354  -0.3625 
21    C18      5.2242  -11.1823    5.1879 C.3     1  LIG   0.1155   0.2800 
22    H1       6.4509   -8.0109    6.0778 H       1  LIG   0.4580   0.4500 
23    H2       3.7052   -5.5849   -1.8095 H       1  LIG   0.0992   0.0000 
24    H3       3.7555   -4.3343   -0.5362 H       1  LIG   0.1052   0.0000 
25    H4       5.2088   -5.3675   -0.8637 H       1  LIG   0.1070   0.0000 
26    H5       3.6852   -7.9735   -1.1638 H       1  LIG   0.0969   0.0000 
27    H6       5.1569   -7.7458   -0.1752 H       1  LIG   0.1092   0.0000 
28    H7       2.3861   -8.6701    0.9063 H       1  LIG   0.0807   0.0000 
29    H8       3.7476   -9.7576    0.5603 H       1  LIG   0.1044   0.0000 
30    H9       4.2382  -10.4187    2.9557 H       1  LIG   0.1615   0.1500 
31    H10      3.0035   -5.4107    1.9744 H       1  LIG   0.1050   0.0000 
32    H11      5.9625   -5.3368    1.2076 H       1  LIG   0.0721   0.0000 
33    H12      4.8938   -3.9750    1.5970 H       1  LIG   0.0833   0.0000 
34    H13      7.6678   -5.5148    2.9520 H       1  LIG   0.1379   0.1500 
35    H14      8.5271   -3.8603    4.4892 H       1  LIG   0.1677   0.1500 
36    H15      4.4448   -2.8404    5.7302 H       1  LIG   0.1674   0.1500 
37    H16      3.5453   -4.4771    4.2050 H       1  LIG   0.1335   0.1500 
38    H17      5.6019  -11.7008    6.0744 H       1  LIG   0.0917   0.0000 
39    H18      4.1343  -11.2879    5.1800 H       1  LIG   0.0466   0.0000 
40    H19      5.6759  -11.6544    4.3094 H       1  LIG   0.0442   0.0000 
41    N1       3.6004   -6.3332    0.1617 N.4     1  LIG  -0.6752  -0.9590 
42    H20      2.5749   -6.2989    0.0131 H       1  LIG   0.4429   0.4500 
@<TRIPOS>BOND
1     1     23    1
2     1     24    1
3     1     25    1
4     1     41    1
5     2     3     1
6     2     26    1
7     2     27    1
8     2     41    1
9     3     4     1
10    3     28    1
11    3     29    1
12    4     9     ar
13    4     5     ar
14    5     6     ar
15    5     30    1
16    6     7     ar
17    6     20    1
18    7     8     ar
19    7     19    1
20    8     12    1
21    8     9     ar
22    9     10    1
23    10    11    1
24    10    31    1
25    10    41    1
26    11    12    1
27    11    32    1
28    11    33    1
29    12    18    1
30    12    13    1
31    13    14    2
32    13    34    1
33    14    15    1
34    14    35    1
35    15    16    2
36    15    17    1
37    17    18    2
38    17    36    1
39    18    37    1
40    19    22    1
41    20    21    1
42    21    38    1
43    21    39    1
44    21    40    1
45    41    42    1
@<TRIPOS>SUBSTRUCTURE
1   LIG    1    
 
########## Number      : 49
########## Name        : ZINC00000345
########## Description : AM1BCC_CHARGES =  -0.0001 ORIGINAL_CHARGES =   0.0000

@<TRIPOS>MOLECULE
ZINC00000345
20    20    1     0     0    
SMALL
USER_CHARGES
****
****
@<TRIPOS>ATOM
1     C1       6.6326  -11.6253   -0.6677 C.3     1  LIG  -0.0582   0.1382 
2     C2       5.4818  -10.9128   -1.3139 C.2     1  LIG  -0.1535  -0.1238 
3     C3       4.6051  -11.5502   -2.1049 C.2     1  LIG  -0.1376  -0.3000 
4     C4       5.3717   -9.4538   -1.0254 C.2     1  LIG   0.6379   0.7056 
5     O1       6.1698   -8.8568   -0.3151 O.2     1  LIG  -0.5384  -0.5700 
6     O2       4.2938   -8.9030   -1.6414 O.3     1  LIG  -0.4401  -0.4300 
7     C5       4.1005   -7.4949   -1.4227 C.3     1  LIG   0.1474   0.3750 
8     C6       2.8773   -7.0183   -2.1431 C.3     1  LIG   0.0517  -0.0470 
9     C7       1.6172   -7.7393   -1.9777 C.3     1  LIG   0.0660  -0.0520 
10    O3       2.5452   -7.5224   -3.3487 O.3     1  LIG  -0.3962  -0.2960 
11    H1       7.5834  -11.1908   -0.9936 H       1  LIG   0.0609   0.0000 
12    H2       6.5681  -11.5458    0.4226 H       1  LIG   0.0573   0.0000 
13    H3       6.6514  -12.6907   -0.9213 H       1  LIG   0.0439   0.0000 
14    H4       3.7680  -11.0519   -2.5819 H       1  LIG   0.1388   0.1500 
15    H5       4.7051  -12.6134   -2.3015 H       1  LIG   0.1236   0.1500 
16    H6       3.9947   -7.3066   -0.3476 H       1  LIG   0.0654   0.0000 
17    H7       4.9772   -6.9553   -1.7998 H       1  LIG   0.0682   0.0000 
18    H8       2.9003   -5.9580   -1.9114 H       1  LIG   0.0972   0.1000 
19    H9       1.5942   -8.7761   -1.6757 H       1  LIG   0.0890   0.1000 
20    H10      0.6771   -7.2112   -2.0464 H       1  LIG   0.0766   0.1000 
@<TRIPOS>BOND
1     1     2     1
2     1     11    1
3     1     12    1
4     1     13    1
5     2     3     2
6     2     4     1
7     3     14    1
8     3     15    1
9     4     5     2
10    4     6     1
11    6     7     1
12    7     8     1
13    7     16    1
14    7     17    1
15    8     10    1
16    8     9     1
17    8     18    1
18    9     10    1
19    9     19    1
20    9     20    1
@<TRIPOS>SUBSTRUCTURE
1   LIG    1    
 
########## Number      : 50
########## Name        : ZINC00000346
########## Description : AM1BCC_CHARGES =   1.0001 ORIGINAL_CHARGES =   1.0000

@<TRIPOS>MOLECULE
ZINC00000346
51    53    1     0     0    
SMALL
USER_CHARGES
****
****
@<TRIPOS>ATOM
1     C1       3.8783  -12.2422   -0.5339 C.3     1  LIG   0.0903   0.5030 
2     N1       4.1965  -10.8129   -0.1293 N.4     1  LIG  -0.6004  -1.0120 
3     C2       3.6339   -9.8213   -1.1640 C.3     1  LIG   0.1220   0.5030 
4     C3       3.2763   -8.5964   -0.3490 C.3     1  LIG  -0.1290   0.0000 
5     C4       2.6877   -9.2123    0.9119 C.3     1  LIG   0.1537   0.2800 
6     C5       3.5166  -10.4491    1.2137 C.3     1  LIG   0.0807   0.5030 
7     O1       2.6863   -8.2785    2.0162 O.3     1  LIG  -0.4003  -0.4300 
8     C6       3.8281   -7.7267    2.5280 C.2     1  LIG   0.6280   0.6590 
9     O2       4.9637   -7.9690    2.1441 O.2     1  LIG  -0.5749  -0.5700 
10    C7       3.4613   -6.7317    3.6579 C.3     1  LIG   0.1976   0.4845 
11    C8       2.8463   -5.4589    3.0600 C.ar    1  LIG  -0.1064  -0.1435 
12    C9       1.9003   -4.7205    3.7943 C.ar    1  LIG  -0.0845  -0.1500 
13    C10      1.3416   -3.5481    3.2797 C.ar    1  LIG  -0.1239  -0.1500 
14    C11      1.7245   -3.0852    2.0246 C.ar    1  LIG  -0.1069  -0.1500 
15    C12      2.6702   -3.7909    1.2868 C.ar    1  LIG  -0.1284  -0.1500 
16    C13      3.2299   -4.9638    1.8006 C.ar    1  LIG  -0.1358  -0.1500 
17    C14      4.6853   -6.3626    4.5424 C.3     1  LIG  -0.0937   0.0000 
18    C15      5.3953   -7.5575    5.2170 C.3     1  LIG  -0.0852   0.0000 
19    C16      6.8928   -7.2651    5.1374 C.3     1  LIG  -0.0751   0.0000 
20    C17      6.9946   -5.7839    4.8168 C.3     1  LIG  -0.0796   0.0000 
21    C18      5.8113   -5.5471    3.8916 C.3     1  LIG  -0.0725   0.0000 
22    O3       2.4884   -7.3746    4.4830 O.3     1  LIG  -0.5625  -0.6800 
23    C19      5.7090  -10.6552   -0.0163 C.3     1  LIG   0.0847   0.5030 
24    H1       2.8964   -8.1543    4.8947 H       1  LIG   0.4137   0.4000 
25    H2       4.2873  -12.9138    0.2265 H       1  LIG   0.1003   0.0000 
26    H3       2.7916  -12.3537   -0.5958 H       1  LIG   0.0984   0.0000 
27    H4       4.3378  -12.4341   -1.5078 H       1  LIG   0.0999   0.0000 
28    H5       4.3819   -9.6376   -1.9410 H       1  LIG   0.1104   0.0000 
29    H6       2.7383  -10.2715   -1.6073 H       1  LIG   0.0968   0.0000 
30    H7       2.5533   -7.9548   -0.8630 H       1  LIG   0.1026   0.0000 
31    H8       4.1603   -7.9814   -0.1596 H       1  LIG   0.1079   0.0000 
32    H9       1.6382   -9.4712    0.6935 H       1  LIG   0.1237   0.0000 
33    H10      2.8704  -11.2828    1.5102 H       1  LIG   0.1063   0.0000 
34    H11      4.2867  -10.3315    1.9802 H       1  LIG   0.1190   0.0000 
35    H12      1.5890   -5.0506    4.7829 H       1  LIG   0.1564   0.1500 
36    H13      0.6098   -2.9959    3.8624 H       1  LIG   0.1485   0.1500 
37    H14      1.2915   -2.1729    1.6249 H       1  LIG   0.1463   0.1500 
38    H15      2.9784   -3.4266    0.3107 H       1  LIG   0.1398   0.1500 
39    H16      3.9779   -5.4758    1.2007 H       1  LIG   0.1275   0.1500 
40    H17      4.2994   -5.7505    5.3738 H       1  LIG   0.0878   0.0000 
41    H18      5.0776   -7.6316    6.2639 H       1  LIG   0.0504   0.0000 
42    H19      5.1742   -8.5220    4.7498 H       1  LIG   0.0236   0.0000 
43    H20      7.4155   -7.5266    6.0621 H       1  LIG   0.0560   0.0000 
44    H21      7.3379   -7.8521    4.3249 H       1  LIG   0.0449   0.0000 
45    H22      6.8878   -5.1889    5.7315 H       1  LIG   0.0560   0.0000 
46    H23      7.9481   -5.5243    4.3482 H       1  LIG   0.0488   0.0000 
47    H24      6.0534   -5.9000    2.8849 H       1  LIG   0.0501   0.0000 
48    H25      5.5662   -4.4824    3.8262 H       1  LIG   0.0638   0.0000 
49    H26      6.0682  -11.3370    0.7601 H       1  LIG   0.0935   0.0000 
50    H27      6.1547  -10.9092   -0.9826 H       1  LIG   0.0936   0.0000 
51    H28      5.9376   -9.6195    0.2465 H       1  LIG   0.1362   0.0000 
@<TRIPOS>BOND
1     1     2     1
2     1     25    1
3     1     26    1
4     1     27    1
5     2     6     1
6     2     3     1
7     2     23    1
8     3     4     1
9     3     28    1
10    3     29    1
11    4     5     1
12    4     30    1
13    4     31    1
14    5     6     1
15    5     7     1
16    5     32    1
17    6     33    1
18    6     34    1
19    7     8     1
20    8     9     2
21    8     10    1
22    10    11    1
23    10    17    1
24    10    22    1
25    11    16    ar
26    11    12    ar
27    12    13    ar
28    12    35    1
29    13    14    ar
30    13    36    1
31    14    15    ar
32    14    37    1
33    15    16    ar
34    15    38    1
35    16    39    1
36    17    21    1
37    17    18    1
38    17    40    1
39    18    19    1
40    18    41    1
41    18    42    1
42    19    20    1
43    19    43    1
44    19    44    1
45    20    21    1
46    20    45    1
47    20    46    1
48    21    47    1
49    21    48    1
50    22    24    1
51    23    49    1
52    23    50    1
53    23    51    1
@<TRIPOS>SUBSTRUCTURE
1   LIG    1    
 
########## Number      : 51
########## Name        : ZINC00000347
########## Description : AM1BCC_CHARGES =   1.0001 ORIGINAL_CHARGES =   1.0000

@<TRIPOS>MOLECULE
ZINC00000347
48    51    1     0     0    
SMALL
USER_CHARGES
****
****
@<TRIPOS>ATOM
1     C1       2.6254    3.4613   -9.0861 C.3     1  LIG   0.0368   0.2556 
2     N1       2.0690    3.3589   -7.7588 N.pl3   1  LIG   0.1160   0.3140 
3     C2       1.9672    2.2208   -7.0045 C.ar    1  LIG  -0.0635  -0.1516 
4     C3       2.3408    0.8940   -7.2564 C.ar    1  LIG  -0.1165  -0.1500 
5     C4       2.0722   -0.0520   -6.2644 C.ar    1  LIG  -0.0987  -0.1500 
6     C5       1.4492    0.3157   -5.0746 C.ar    1  LIG  -0.1361  -0.1500 
7     C6       1.0823    1.6463   -4.8381 C.ar    1  LIG  -0.0916  -0.1500 
8     C7       1.3579    2.6235   -5.8172 C.ar    1  LIG  -0.1833   0.0000 
9     C8       1.1547    4.0313   -5.9658 C.2     1  LIG   0.2507   0.2028 
10    N2       1.5684    4.4553   -7.1700 N.2     1  LIG  -0.4214  -0.7068 
11    C9       0.5700    5.0037   -5.0449 C.2     1  LIG   0.6348   0.7160 
12    O1       0.0052    6.0181   -5.4489 O.2     1  LIG  -0.5736  -0.5700 
13    N3       0.7408    4.7056   -3.7007 N.am    1  LIG  -0.5815  -0.7301 
14    C10      0.2396    5.5676   -2.6352 C.3     1  LIG   0.1041   0.3001 
15    C11      1.2440    6.6878   -2.3318 C.3     1  LIG  -0.1423   0.0000 
16    C12      0.8494    7.5272   -1.1072 C.3     1  LIG   0.1458   0.5030 
17    C13     -0.4392    8.3353   -1.3540 C.3     1  LIG  -0.1029   0.0000 
18    C14     -1.7019    7.8488   -0.6531 C.3     1  LIG  -0.0930   0.0000 
19    C15     -1.7749    6.3513   -0.3803 C.3     1  LIG  -0.0988   0.0000 
20    C16     -0.4373    5.6161   -0.1692 C.3     1  LIG   0.1433   0.5030 
21    C17     -0.0636    4.7441   -1.3777 C.3     1  LIG  -0.1200   0.0000 
22    C18      0.7083    7.2390    1.4100 C.3     1  LIG   0.0857   0.5030 
23    H1       1.3278    3.9224   -3.4347 H       1  LIG   0.3207   0.3700 
24    H2       1.9731    2.9183   -9.7744 H       1  LIG   0.0625   0.0000 
25    H3       2.6848    4.5129   -9.3790 H       1  LIG   0.0866   0.0000 
26    H4       3.6277    3.0256   -9.0791 H       1  LIG   0.0612   0.0000 
27    H5       2.8161    0.6032   -8.1873 H       1  LIG   0.1502   0.1500 
28    H6       2.3469   -1.0910   -6.4282 H       1  LIG   0.1477   0.1500 
29    H7       1.2397   -0.4396   -4.3213 H       1  LIG   0.1411   0.1500 
30    H8       0.5808    1.8996   -3.9091 H       1  LIG   0.1298   0.1500 
31    H9      -0.6922    6.0169   -2.9990 H       1  LIG   0.1022   0.0000 
32    H10      2.2360    6.2485   -2.1569 H       1  LIG   0.0618   0.0000 
33    H11      1.3578    7.3372   -3.2091 H       1  LIG   0.1162   0.0000 
34    H12      1.6560    8.2502   -0.8978 H       1  LIG   0.0971   0.0000 
35    H13     -0.2636    9.3724   -1.0374 H       1  LIG   0.0779   0.0000 
36    H14     -0.6342    8.4075   -2.4317 H       1  LIG   0.1024   0.0000 
37    H15     -1.8012    8.3833    0.2995 H       1  LIG   0.0523   0.0000 
38    H16     -2.5824    8.1586   -1.2299 H       1  LIG   0.0935   0.0000 
39    H17     -2.3939    6.2081    0.5158 H       1  LIG   0.0775   0.0000 
40    H18     -2.3433    5.8688   -1.1856 H       1  LIG   0.0921   0.0000 
41    H19     -0.5554    4.9658    0.7143 H       1  LIG   0.0964   0.0000 
42    H20     -0.8677    4.0277   -1.5892 H       1  LIG   0.1065   0.0000 
43    H21      0.8146    4.1369   -1.1171 H       1  LIG   0.0614   0.0000 
44    H22      0.7096    6.4430    2.1595 H       1  LIG   0.0980   0.0000 
45    H23      1.6339    7.8161    1.4853 H       1  LIG   0.0983   0.0000 
46    H24     -0.1569    7.8863    1.5422 H       1  LIG   0.1104   0.0000 
47    N4       0.6797    6.5919    0.0529 N.4     1  LIG  -0.6806  -0.9590 
48    H25      1.5369    6.0218    0.0659 H       1  LIG   0.4429   0.4500 
@<TRIPOS>BOND
1     1     2     1
2     1     24    1
3     1     25    1
4     1     26    1
5     2     10    1
6     2     3     1
7     3     8     ar
8     3     4     ar
9     4     5     ar
10    4     27    1
11    5     6     ar
12    5     28    1
13    6     7     ar
14    6     29    1
15    7     8     ar
16    7     30    1
17    8     9     1
18    9     10    2
19    9     11    1
20    11    12    2
21    11    13    am
22    13    14    1
23    13    23    1
24    14    21    1
25    14    15    1
26    14    31    1
27    15    16    1
28    15    32    1
29    15    33    1
30    16    17    1
31    16    34    1
32    16    47    1
33    17    18    1
34    17    35    1
35    17    36    1
36    18    19    1
37    18    37    1
38    18    38    1
39    19    20    1
40    19    39    1
41    19    40    1
42    20    21    1
43    20    41    1
44    20    47    1
45    21    42    1
46    21    43    1
47    22    44    1
48    22    45    1
49    22    46    1
50    22    47    1
51    47    48    1
@<TRIPOS>SUBSTRUCTURE
1   LIG    1    
 
########## Number      : 52
########## Name        : ZINC00000349
########## Description : AM1BCC_CHARGES =  -0.0000 ORIGINAL_CHARGES =   0.0000

@<TRIPOS>MOLECULE
ZINC00000349
29    30    1     0     0    
SMALL
USER_CHARGES
****
****
@<TRIPOS>ATOM
1     C1       6.2825   -6.8375   -2.1750 C.3     1  LIG   0.1125   0.2800 
2     O1       5.5458   -6.3088   -1.0792 O.3     1  LIG  -0.3139  -0.3625 
3     C2       4.6727   -7.1562   -0.4520 C.ar    1  LIG   0.1305   0.0825 
4     C3       4.4640   -8.4977   -0.7808 C.ar    1  LIG  -0.1978  -0.1500 
5     C4       3.5495   -9.2691   -0.0536 C.ar    1  LIG  -0.0940  -0.1500 
6     C5       2.8388   -8.7120    1.0101 C.ar    1  LIG  -0.1561  -0.1500 
7     C6       3.0345   -7.3774    1.3507 C.ar    1  LIG  -0.0937  -0.1500 
8     C7       3.9364   -6.6123    0.6089 C.ar    1  LIG   0.0780   0.0825 
9     O2       4.1417   -5.2798    0.9896 O.3     1  LIG  -0.3531  -0.2325 
10    C8       3.3058   -4.3967    0.3326 C.2     1  LIG   0.6529   0.6338 
11    O3       2.4351   -4.6721   -0.4793 O.2     1  LIG  -0.5212  -0.5700 
12    C9       3.6013   -3.0072    0.7675 C.ar    1  LIG  -0.1334   0.0862 
13    C10      4.6913   -2.6919    1.5890 C.ar    1  LIG  -0.0667  -0.1500 
14    C11      4.9242   -1.3666    1.9644 C.ar    1  LIG  -0.1493  -0.1500 
15    C12      4.0758   -0.3527    1.5230 C.ar    1  LIG  -0.0972  -0.1500 
16    C13      2.9918   -0.6606    0.7034 C.ar    1  LIG  -0.1474  -0.1500 
17    C14      2.7538   -1.9831    0.3245 C.ar    1  LIG  -0.0746  -0.1500 
18    H1       6.9182   -6.0375   -2.5665 H       1  LIG   0.0689   0.0000 
19    H2       6.9365   -7.6546   -1.8531 H       1  LIG   0.0326   0.0000 
20    H3       5.6153   -7.1572   -2.9822 H       1  LIG   0.0370   0.0000 
21    H4       4.9974   -8.9791   -1.5946 H       1  LIG   0.1398   0.1500 
22    H5       3.3953  -10.3121   -0.3174 H       1  LIG   0.1341   0.1500 
23    H6       2.1359   -9.3202    1.5719 H       1  LIG   0.1373   0.1500 
24    H7       2.4881   -6.9405    2.1810 H       1  LIG   0.1477   0.1500 
25    H8       5.3765   -3.4552    1.9473 H       1  LIG   0.1575   0.1500 
26    H9       5.7706   -1.1253    2.6015 H       1  LIG   0.1384   0.1500 
27    H10      4.2601    0.6767    1.8167 H       1  LIG   0.1353   0.1500 
28    H11      2.3309    0.1295    0.3581 H       1  LIG   0.1390   0.1500 
29    H12      1.9014   -2.1980   -0.3155 H       1  LIG   0.1569   0.1500 
@<TRIPOS>BOND
1     1     2     1
2     1     18    1
3     1     19    1
4     1     20    1
5     2     3     1
6     3     8     ar
7     3     4     ar
8     4     5     ar
9     4     21    1
10    5     6     ar
11    5     22    1
12    6     7     ar
13    6     23    1
14    7     8     ar
15    7     24    1
16    8     9     1
17    9     10    1
18    10    11    2
19    10    12    1
20    12    17    ar
21    12    13    ar
22    13    14    ar
23    13    25    1
24    14    15    ar
25    14    26    1
26    15    16    ar
27    15    27    1
28    16    17    ar
29    16    28    1
30    17    29    1
@<TRIPOS>SUBSTRUCTURE
1   LIG    1    
 
########## Number      : 53
########## Name        : ZINC00000350
########## Description : AM1BCC_CHARGES =   0.0000 ORIGINAL_CHARGES =   0.0000

@<TRIPOS>MOLECULE
ZINC00000350
34    35    1     0     0    
SMALL
USER_CHARGES
****
****
@<TRIPOS>ATOM
1     C1       7.0431   -7.4363   -0.9210 C.3     1  LIG   0.1124   0.2800 
2     O1       6.8486   -6.9383    0.3971 O.3     1  LIG  -0.3125  -0.3625 
3     C2       5.7191   -7.3462    1.0540 C.ar    1  LIG   0.1377   0.0825 
4     C3       4.7577   -8.2249    0.5492 C.ar    1  LIG  -0.1995  -0.1500 
5     C4       3.6466   -8.5774    1.3246 C.ar    1  LIG  -0.0874  -0.1500 
6     C5       3.4862   -8.0611    2.6109 C.ar    1  LIG  -0.1584  -0.1500 
7     C6       4.4342   -7.1846    3.1289 C.ar    1  LIG  -0.0846  -0.1500 
8     C7       5.5304   -6.8268    2.3419 C.ar    1  LIG   0.0627   0.0825 
9     O2       6.4861   -5.9673    2.8978 O.3     1  LIG  -0.2949  -0.2325 
10    C8       6.2583   -4.6327    2.5900 C.2     1  LIG   0.7672   0.8700 
11    O3       5.3301   -4.1894    1.9241 O.2     1  LIG  -0.5436  -0.5700 
12    O4       7.2768   -3.8935    3.1763 O.3     1  LIG  -0.2946  -0.2325 
13    C9       7.1492   -2.5166    2.9551 C.ar    1  LIG   0.0625   0.0825 
14    C10      7.8316   -1.9612    1.8711 C.ar    1  LIG  -0.0846  -0.1500 
15    C11      7.7457   -0.5908    1.6474 C.ar    1  LIG  -0.1580  -0.1500 
16    C12      6.9934    0.2083    2.5090 C.ar    1  LIG  -0.0875  -0.1500 
17    C13      6.3257   -0.3560    3.6027 C.ar    1  LIG  -0.1993  -0.1500 
18    C14      6.4015   -1.7302    3.8419 C.ar    1  LIG   0.1376   0.0825 
19    O5       5.8037   -2.3920    4.8803 O.3     1  LIG  -0.3118  -0.3625 
20    C15      5.0203   -1.6127    5.7758 C.3     1  LIG   0.1121   0.2800 
21    H1       7.9756   -7.0108   -1.3041 H       1  LIG   0.0703   0.0000 
22    H2       7.1508   -8.5260   -0.9192 H       1  LIG   0.0348   0.0000 
23    H3       6.2341   -7.1182   -1.5869 H       1  LIG   0.0380   0.0000 
24    H4       4.8406   -8.6587   -0.4424 H       1  LIG   0.1417   0.1500 
25    H5       2.9049   -9.2625    0.9224 H       1  LIG   0.1357   0.1500 
26    H6       2.6237   -8.3452    3.2069 H       1  LIG   0.1393   0.1500 
27    H7       4.3168   -6.7843    4.1314 H       1  LIG   0.1526   0.1500 
28    H8       8.4202   -2.5865    1.2068 H       1  LIG   0.1527   0.1500 
29    H9       8.2648   -0.1427    0.8051 H       1  LIG   0.1394   0.1500 
30    H10      6.9284    1.2787    2.3325 H       1  LIG   0.1355   0.1500 
31    H11      5.7593    0.3087    4.2474 H       1  LIG   0.1417   0.1500 
32    H12      4.6092   -2.2873    6.5330 H       1  LIG   0.0704   0.0000 
33    H13      5.6350   -0.8681    6.2923 H       1  LIG   0.0342   0.0000 
34    H14      4.1783   -1.1422    5.2574 H       1  LIG   0.0382   0.0000 
@<TRIPOS>BOND
1     1     2     1
2     1     21    1
3     1     22    1
4     1     23    1
5     2     3     1
6     3     8     ar
7     3     4     ar
8     4     5     ar
9     4     24    1
10    5     6     ar
11    5     25    1
12    6     7     ar
13    6     26    1
14    7     8     ar
15    7     27    1
16    8     9     1
17    9     10    1
18    10    11    2
19    10    12    1
20    12    13    1
21    13    18    ar
22    13    14    ar
23    14    15    ar
24    14    28    1
25    15    16    ar
26    15    29    1
27    16    17    ar
28    16    30    1
29    17    18    ar
30    17    31    1
31    18    19    1
32    19    20    1
33    20    32    1
34    20    33    1
35    20    34    1
@<TRIPOS>SUBSTRUCTURE
1   LIG    1    
 
########## Number      : 54
########## Name        : ZINC00000357
########## Description : AM1BCC_CHARGES =   1.0000 ORIGINAL_CHARGES =   0.9999

@<TRIPOS>MOLECULE
ZINC00000357
29    30    1     0     0    
SMALL
USER_CHARGES
****
****
@<TRIPOS>ATOM
1     C1       4.0576   -8.8011   -1.0260 C.ar    1  LIG  -0.1120  -0.1500 
2     C2       2.7532   -8.9229   -0.5452 C.ar    1  LIG  -0.1185  -0.1500 
3     C3       2.0687   -7.7972   -0.0858 C.ar    1  LIG  -0.1136  -0.1500 
4     C4       2.6909   -6.5495   -0.1123 C.ar    1  LIG   0.0363   0.0825 
5     C5       4.0063   -6.4321   -0.5673 C.ar    1  LIG   0.0515   0.0825 
6     C6       4.6855   -7.5552   -1.0386 C.ar    1  LIG  -0.1052  -0.1500 
7     O1       4.6821   -5.2403   -0.5832 O.3     1  LIG  -0.2956  -0.3625 
8     C7       4.0282   -4.2472    0.2141 C.3     1  LIG   0.1009   0.2800 
9     C8       2.5322   -4.2354   -0.0813 C.3     1  LIG   0.0890   0.2800 
10    O2       1.9633   -5.4780    0.3343 O.3     1  LIG  -0.3460  -0.3625 
11    C9       1.8384   -3.1087    0.6936 C.3     1  LIG   0.0190   0.3276 
12    N1       0.4171   -3.0104    0.3073 N.pl3   1  LIG  -0.3897  -0.8443 
13    C10     -0.4387   -2.0528    0.8250 C.cat   1  LIG   0.5223   1.2000 
14    N2      -1.7551   -2.0316    0.4110 N.pl3   1  LIG  -0.5066  -0.9667 
15    N3      -0.0104   -1.1182    1.7455 N.pl3   1  LIG  -0.5030  -0.9667 
16    H1       0.0350   -3.6765   -0.3601 H       1  LIG   0.3359   0.4500 
17    H2      -2.4093   -1.3427    0.7714 H       1  LIG   0.3270   0.4500 
18    H3      -2.1076   -2.7038   -0.2644 H       1  LIG   0.3290   0.4500 
19    H4      -0.6480   -0.4203    2.1182 H       1  LIG   0.3272   0.4500 
20    H5       0.9473   -1.0974    2.0818 H       1  LIG   0.3275   0.4500 
21    H6       4.5869   -9.6787   -1.3866 H       1  LIG   0.1537   0.1500 
22    H7       2.2688   -9.8952   -0.5321 H       1  LIG   0.1512   0.1500 
23    H8       1.0507   -7.8977    0.2802 H       1  LIG   0.1493   0.1500 
24    H9       5.7046   -7.4687   -1.4053 H       1  LIG   0.1649   0.1500 
25    H10      4.2357   -4.4578    1.2712 H       1  LIG   0.0671   0.0000 
26    H11      4.4806   -3.2811   -0.0333 H       1  LIG   0.0923   0.0000 
27    H12      2.3530   -4.0719   -1.1576 H       1  LIG   0.0869   0.0000 
28    H13      1.8733   -3.3136    1.7689 H       1  LIG   0.0821   0.0000 
29    H14      2.3162   -2.1499    0.4682 H       1  LIG   0.0771   0.0000 
@<TRIPOS>BOND
1     1     6     ar
2     1     2     ar
3     1     21    1
4     2     3     ar
5     2     22    1
6     3     4     ar
7     3     23    1
8     4     10    1
9     4     5     ar
10    5     6     ar
11    5     7     1
12    6     24    1
13    7     8     1
14    8     9     1
15    8     25    1
16    8     26    1
17    9     10    1
18    9     11    1
19    9     27    1
20    11    12    1
21    11    28    1
22    11    29    1
23    12    13    1
24    12    16    1
25    13    14    1
26    13    15    2
27    14    17    1
28    14    18    1
29    15    19    1
30    15    20    1
@<TRIPOS>SUBSTRUCTURE
1   LIG    1    
 
########## Number      : 55
########## Name        : ZINC00000363
########## Description : AM1BCC_CHARGES =   2.0003 ORIGINAL_CHARGES =   2.0000

@<TRIPOS>MOLECULE
ZINC00000363
57    59    1     0     0    
SMALL
USER_CHARGES
****
****
@<TRIPOS>ATOM
1     C1      -1.8533    4.9175    4.4047 C.3     1  LIG   0.0802   0.5030 
2     N1      -2.2612    3.4422    4.4161 N.4     1  LIG  -0.6106  -1.0120 
3     C2      -3.2991    3.1545    3.3157 C.3     1  LIG   0.0787   0.5030 
4     C3      -2.7258    2.3183    2.1741 C.3     1  LIG   0.0789   0.5030 
5     C4      -0.3748    2.6641    2.8890 C.3     1  LIG   0.0775   0.5030 
6     C5      -1.0366    2.5428    4.2638 C.3     1  LIG   0.0843   0.5030 
7     C6      -0.9246    2.3053    0.4204 C.3     1  LIG   0.0785   0.5030 
8     C7      -0.3196    3.2513   -0.7006 C.3     1  LIG   0.2130   0.4235 
9     C8      -1.3761    4.1703   -1.3578 C.ar    1  LIG  -0.1718  -0.1435 
10    C9      -1.0480    4.7622   -2.6004 C.ar    1  LIG  -0.1054  -0.1500 
11    C10     -1.9300    5.6119   -3.2728 C.ar    1  LIG  -0.0929  -0.1500 
12    C11     -3.1711    5.8964   -2.7208 C.ar    1  LIG  -0.0838  -0.1500 
13    C12     -3.5220    5.3301   -1.5008 C.ar    1  LIG  -0.1133  -0.1500 
14    C13     -2.6349    4.4783   -0.8293 C.ar    1  LIG  -0.1565  -0.1500 
15    C14      0.8945    4.1344   -0.2127 C.3     1  LIG  -0.0918   0.0000 
16    C15      0.5727    5.3810    0.6344 C.3     1  LIG  -0.0645   0.0000 
17    C16      1.8260    6.1952    0.9586 C.3     1  LIG  -0.0864   0.0000 
18    C17      2.9075    5.3386    1.6039 C.3     1  LIG  -0.0808   0.0000 
19    C18      3.2705    4.1533    0.7190 C.3     1  LIG  -0.0875   0.0000 
20    C19      2.0486    3.2997    0.3843 C.3     1  LIG  -0.0694   0.0000 
21    O1       0.1816    2.3594   -1.7046 O.3     1  LIG  -0.5775  -0.6800 
22    C20     -2.8949    3.1580    5.7848 C.3     1  LIG   0.0879   0.5030 
23    H1      -0.5648    2.0501   -2.2467 H       1  LIG   0.4413   0.4000 
24    H2      -1.0905    5.0715    5.1736 H       1  LIG   0.1265   0.0000 
25    H3      -1.4603    5.1734    3.4195 H       1  LIG   0.0873   0.0000 
26    H4      -2.7400    5.5211    4.6212 H       1  LIG   0.1266   0.0000 
27    H5      -4.1446    2.6225    3.7662 H       1  LIG   0.1504   0.0000 
28    H6      -3.6680    4.1188    2.9478 H       1  LIG   0.1309   0.0000 
29    H7      -3.4050    2.3544    1.3173 H       1  LIG   0.1560   0.0000 
30    H8      -2.5840    1.2667    2.4496 H       1  LIG   0.1300   0.0000 
31    H9       0.1906    1.7477    2.6914 H       1  LIG   0.1531   0.0000 
32    H10      0.3121    3.5110    2.8766 H       1  LIG   0.1480   0.0000 
33    H11     -0.3259    2.7963    5.0594 H       1  LIG   0.1476   0.0000 
34    H12     -1.3731    1.5124    4.4343 H       1  LIG   0.1261   0.0000 
35    H13     -1.7879    1.7872   -0.0195 H       1  LIG   0.1128   0.0000 
36    H14     -0.2152    1.4958    0.6337 H       1  LIG   0.1316   0.0000 
37    H15     -0.0831    4.5630   -3.0641 H       1  LIG   0.1609   0.1500 
38    H16     -1.6434    6.0484   -4.2253 H       1  LIG   0.1731   0.1500 
39    H17     -3.8619    6.5560   -3.2372 H       1  LIG   0.1716   0.1500 
40    H18     -4.4927    5.5504   -1.0640 H       1  LIG   0.1500   0.1500 
41    H19     -2.9782    4.0824    0.1129 H       1  LIG   0.0649   0.1500 
42    H20      1.3353    4.5416   -1.1379 H       1  LIG   0.1112   0.0000 
43    H21     -0.1244    6.0386    0.1042 H       1  LIG   0.0672   0.0000 
44    H22      0.0925    5.1188    1.5737 H       1  LIG  -0.0439   0.0000 
45    H23      2.2162    6.6457    0.0375 H       1  LIG   0.0779   0.0000 
46    H24      1.5621    7.0215    1.6286 H       1  LIG   0.0582   0.0000 
47    H25      3.7996    5.9482    1.7862 H       1  LIG   0.0820   0.0000 
48    H26      2.5601    4.9784    2.5799 H       1  LIG   0.0113   0.0000 
49    H27      3.7264    4.5167   -0.2103 H       1  LIG   0.0748   0.0000 
50    H28      4.0234    3.5350    1.2208 H       1  LIG   0.0678   0.0000 
51    H29      1.7310    2.7835    1.2907 H       1  LIG  -0.0177   0.0000 
52    H30      2.3549    2.5199   -0.3230 H       1  LIG   0.0869   0.0000 
53    H31     -2.1580    3.3857    6.5608 H       1  LIG   0.1230   0.0000 
54    H32     -3.7783    3.7944    5.8934 H       1  LIG   0.1236   0.0000 
55    H33     -3.1759    2.1012    5.8232 H       1  LIG   0.1140   0.0000 
56    N2      -1.3739    2.8714    1.7557 N.4     1  LIG  -0.6791  -0.9590 
57    H34     -1.5025    3.8812    1.6313 H       1  LIG   0.4676   0.4500 
@<TRIPOS>BOND
1     1     2     1
2     1     24    1
3     1     25    1
4     1     26    1
5     2     6     1
6     2     3     1
7     2     22    1
8     3     4     1
9     3     27    1
10    3     28    1
11    4     29    1
12    4     30    1
13    4     56    1
14    5     6     1
15    5     31    1
16    5     32    1
17    5     56    1
18    6     33    1
19    6     34    1
20    7     8     1
21    7     35    1
22    7     36    1
23    7     56    1
24    8     9     1
25    8     15    1
26    8     21    1
27    9     14    ar
28    9     10    ar
29    10    11    ar
30    10    37    1
31    11    12    ar
32    11    38    1
33    12    13    ar
34    12    39    1
35    13    14    ar
36    13    40    1
37    14    41    1
38    15    20    1
39    15    16    1
40    15    42    1
41    16    17    1
42    16    43    1
43    16    44    1
44    17    18    1
45    17    45    1
46    17    46    1
47    18    19    1
48    18    47    1
49    18    48    1
50    19    20    1
51    19    49    1
52    19    50    1
53    20    51    1
54    20    52    1
55    21    23    1
56    22    53    1
57    22    54    1
58    22    55    1
59    56    57    1
@<TRIPOS>SUBSTRUCTURE
1   LIG    1    
 
########## Number      : 56
########## Name        : ZINC00000370
########## Description : AM1BCC_CHARGES =   0.0001 ORIGINAL_CHARGES =   0.0000

@<TRIPOS>MOLECULE
ZINC00000370
41    42    1     0     0    
SMALL
USER_CHARGES
****
****
@<TRIPOS>ATOM
1     C1       7.8345   -8.6794   -0.2568 C.3     1  LIG  -0.0902   0.0000 
2     C2       6.4287   -8.1126   -0.0259 C.3     1  LIG  -0.0634   0.0000 
3     C3       6.5242   -6.7362    0.6314 C.3     1  LIG  -0.0772   0.0000 
4     C4       5.1429   -6.1383    0.9203 C.3     1  LIG   0.1556   0.2800 
5     C5       4.3166   -7.0900    1.7930 C.3     1  LIG  -0.0946   0.0000 
6     C6       4.2020   -8.5149    1.2106 C.3     1  LIG  -0.0470   0.0000 
7     C7       5.6097   -9.0553    0.8674 C.3     1  LIG  -0.0697   0.0000 
8     C8       3.5573   -9.4348    2.2650 C.3     1  LIG  -0.0880   0.0000 
9     C9       3.2975   -8.5198   -0.0367 C.3     1  LIG  -0.0871   0.0000 
10    O1       5.3331   -4.9039    1.6298 O.3     1  LIG  -0.4333  -0.4300 
11    C10      4.3504   -3.9737    1.5302 C.2     1  LIG   0.6635   0.6338 
12    O2       3.3130   -4.0836    0.8952 O.2     1  LIG  -0.5838  -0.5700 
13    C11      4.6913   -2.7642    2.3283 C.ar    1  LIG  -0.2312   0.0862 
14    C12      5.9533   -2.6288    2.9283 C.ar    1  LIG  -0.0352  -0.1500 
15    C13      6.2663   -1.4899    3.6754 C.ar    1  LIG  -0.1893  -0.1500 
16    C14      5.3270   -0.4742    3.8317 C.ar    1  LIG  -0.0606  -0.1500 
17    C15      4.0719   -0.5936    3.2400 C.ar    1  LIG  -0.1841  -0.1500 
18    C16      3.7556   -1.7303    2.4917 C.ar    1  LIG   0.2050   0.0825 
19    O3       2.4979   -1.7558    1.9502 O.3     1  LIG  -0.5008  -0.5325 
20    H1       2.3882   -2.5742    1.4346 H       1  LIG   0.4609   0.4500 
21    H2       8.4166   -8.0187   -0.9079 H       1  LIG   0.0355   0.0000 
22    H3       8.3799   -8.7929    0.6863 H       1  LIG   0.0352   0.0000 
23    H4       7.7809   -9.6622   -0.7370 H       1  LIG   0.0362   0.0000 
24    H5       5.9669   -8.0411   -1.0234 H       1  LIG   0.0514   0.0000 
25    H6       7.1002   -6.7938    1.5654 H       1  LIG   0.0560   0.0000 
26    H7       7.0845   -6.0462   -0.0127 H       1  LIG   0.0514   0.0000 
27    H8       4.6491   -5.9665   -0.0485 H       1  LIG   0.0747   0.0000 
28    H9       4.7758   -7.1330    2.7910 H       1  LIG   0.0528   0.0000 
29    H10      3.3178   -6.6659    1.9589 H       1  LIG   0.0619   0.0000 
30    H11      5.5218  -10.0346    0.3785 H       1  LIG   0.0441   0.0000 
31    H12      6.1644   -9.2305    1.8000 H       1  LIG   0.0431   0.0000 
32    H13      3.4602  -10.4597    1.8895 H       1  LIG   0.0355   0.0000 
33    H14      4.1579   -9.4725    3.1808 H       1  LIG   0.0344   0.0000 
34    H15      2.5565   -9.0822    2.5389 H       1  LIG   0.0377   0.0000 
35    H16      3.1957   -9.5329   -0.4424 H       1  LIG   0.0340   0.0000 
36    H17      2.2916   -8.1595    0.2078 H       1  LIG   0.0402   0.0000 
37    H18      3.6840   -7.8851   -0.8389 H       1  LIG   0.0363   0.0000 
38    H19      6.7174   -3.3955    2.8283 H       1  LIG   0.1550   0.1500 
39    H20      7.2465   -1.3969    4.1350 H       1  LIG   0.1403   0.1500 
40    H21      5.5726    0.4099    4.4128 H       1  LIG   0.1383   0.1500 
41    H22      3.3418    0.2021    3.3637 H       1  LIG   0.1566   0.1500 
@<TRIPOS>BOND
1     1     2     1
2     1     21    1
3     1     22    1
4     1     23    1
5     2     7     1
6     2     3     1
7     2     24    1
8     3     4     1
9     3     25    1
10    3     26    1
11    4     5     1
12    4     10    1
13    4     27    1
14    5     6     1
15    5     28    1
16    5     29    1
17    6     7     1
18    6     8     1
19    6     9     1
20    7     30    1
21    7     31    1
22    8     32    1
23    8     33    1
24    8     34    1
25    9     35    1
26    9     36    1
27    9     37    1
28    10    11    1
29    11    12    2
30    11    13    1
31    13    18    ar
32    13    14    ar
33    14    15    ar
34    14    38    1
35    15    16    ar
36    15    39    1
37    16    17    ar
38    16    40    1
39    17    18    ar
40    17    41    1
41    18    19    1
42    19    20    1
@<TRIPOS>SUBSTRUCTURE
1   LIG    1    
 
########## Number      : 57
########## Name        : ZINC00000375
########## Description : AM1BCC_CHARGES =   0.0001 ORIGINAL_CHARGES =   0.0000

@<TRIPOS>MOLECULE
ZINC00000375
30    30    1     0     0    
SMALL
USER_CHARGES
****
****
@<TRIPOS>ATOM
1     C1       2.9859    4.1471    0.1593 C.3     1  LIG  -0.0929   0.0000 
2     C2       1.6786    4.7240    0.6880 C.3     1  LIG  -0.0972   0.0000 
3     C3       0.5705    4.9814   -0.3724 C.3     1  LIG   0.1851   0.4235 
4     C4       0.1786    3.6469   -1.0707 C.3     1  LIG   0.1134   0.2800 
5     O1      -0.1789    2.6448   -0.0907 O.3     1  LIG  -0.4547  -0.4300 
6     C5      -1.4954    2.3430    0.0725 C.2     1  LIG   0.7298   0.7800 
7     O2      -2.4301    2.8615   -0.5251 O.2     1  LIG  -0.5810  -0.5700 
8     N1      -1.6397    1.3669    1.0210 N.am    1  LIG  -0.6464  -0.8000 
9     C6       1.0252    6.0553   -1.3693 C.ar    1  LIG  -0.0734  -0.1435 
10    C7       1.1420    7.3889   -0.9264 C.ar    1  LIG  -0.0975  -0.1500 
11    C8       1.5587    8.4095   -1.7843 C.ar    1  LIG  -0.1333  -0.1500 
12    C9       1.8700    8.1204   -3.1080 C.ar    1  LIG  -0.1252  -0.1500 
13    C10      1.7638    6.8123   -3.5701 C.ar    1  LIG  -0.1333  -0.1500 
14    C11      1.3462    5.7901   -2.7107 C.ar    1  LIG  -0.1259  -0.1500 
15    O3      -0.5887    5.4774    0.3016 O.3     1  LIG  -0.5901  -0.6800 
16    H1      -2.5564    1.0171    1.2744 H       1  LIG   0.3337   0.3700 
17    H2      -0.8342    0.9686    1.4893 H       1  LIG   0.3263   0.3700 
18    H3      -0.8584    4.8160    0.9608 H       1  LIG   0.4075   0.4000 
19    H4       3.7030    4.0443    0.9806 H       1  LIG   0.0365   0.0000 
20    H5       2.8433    3.1536   -0.2746 H       1  LIG   0.0329   0.0000 
21    H6       3.4400    4.7963   -0.5946 H       1  LIG   0.0425   0.0000 
22    H7       1.2913    4.0565    1.4691 H       1  LIG   0.0493   0.0000 
23    H8       1.9012    5.6589    1.2195 H       1  LIG   0.0560   0.0000 
24    H9      -0.6485    3.8065   -1.7733 H       1  LIG   0.0978   0.0000 
25    H10      1.0099    3.2209   -1.6406 H       1  LIG   0.0714   0.0000 
26    H11      0.9039    7.6456    0.1040 H       1  LIG   0.1473   0.1500 
27    H12      1.6386    9.4282   -1.4161 H       1  LIG   0.1325   0.1500 
28    H13      2.1942    8.9112   -3.7778 H       1  LIG   0.1310   0.1500 
29    H14      2.0069    6.5823   -4.6039 H       1  LIG   0.1307   0.1500 
30    H15      1.2851    4.7885   -3.1246 H       1  LIG   0.1273   0.1500 
@<TRIPOS>BOND
1     1     2     1
2     1     19    1
3     1     20    1
4     1     21    1
5     2     3     1
6     2     22    1
7     2     23    1
8     3     4     1
9     3     9     1
10    3     15    1
11    4     5     1
12    4     24    1
13    4     25    1
14    5     6     1
15    6     7     2
16    6     8     am
17    8     16    1
18    8     17    1
19    9     14    ar
20    9     10    ar
21    10    11    ar
22    10    26    1
23    11    12    ar
24    11    27    1
25    12    13    ar
26    12    28    1
27    13    14    ar
28    13    29    1
29    14    30    1
30    15    18    1
@<TRIPOS>SUBSTRUCTURE
1   LIG    1    
 
########## Number      : 58
########## Name        : ZINC00000381
########## Description : AM1BCC_CHARGES =   0.0001 ORIGINAL_CHARGES =   0.0000

@<TRIPOS>MOLECULE
ZINC00000381
35    35    1     0     0    
SMALL
USER_CHARGES
****
****
@<TRIPOS>ATOM
1     C1       5.1196  -10.0244   -1.0440 C.3     1  LIG  -0.0919   0.0000 
2     C2       4.8318   -8.5378   -0.8202 C.3     1  LIG  -0.0634   0.0000 
3     C3       5.6144   -7.7027   -1.8370 C.3     1  LIG  -0.0925   0.0000 
4     C4       3.3144   -8.2812   -0.9069 C.3     1  LIG  -0.0369   0.1435 
5     C5       2.9063   -6.8891   -0.4913 C.ar    1  LIG  -0.0655  -0.1435 
6     C6       2.9397   -6.5103    0.8551 C.ar    1  LIG  -0.1307  -0.1500 
7     C7       2.5678   -5.2193    1.2387 C.ar    1  LIG  -0.1170  -0.1500 
8     C8       2.1452   -4.2777    0.2875 C.ar    1  LIG  -0.0882  -0.1435 
9     C9       2.1241   -4.6596   -1.0611 C.ar    1  LIG  -0.0989  -0.1500 
10    C10      2.4962   -5.9514   -1.4454 C.ar    1  LIG  -0.1293  -0.1500 
11    C11      1.7706   -2.8808    0.7516 C.3     1  LIG  -0.0815   0.2045 
12    C12      0.6122   -2.2500   -0.0341 C.3     1  LIG  -0.0942   0.0000 
13    C13      2.9767   -1.9561    0.6663 C.2     1  LIG   0.5905   0.5690 
14    O1       3.8261   -2.0255   -0.2198 O.2     1  LIG  -0.5494  -0.5700 
15    N1       2.9971   -1.0200    1.6728 N.am    1  LIG  -0.3522  -0.3945 
16    O2       4.0640   -0.1081    1.6917 O.3     1  LIG  -0.4411  -0.4355 
17    H1       2.3249   -0.9444    2.4280 H       1  LIG   0.2930   0.3700 
18    H2       4.6709   -0.4816    1.0281 H       1  LIG   0.4363   0.4000 
19    H3       4.6031  -10.6372   -0.2977 H       1  LIG   0.0318   0.0000 
20    H4       4.7895  -10.3485   -2.0369 H       1  LIG   0.0338   0.0000 
21    H5       6.1919  -10.2306   -0.9592 H       1  LIG   0.0363   0.0000 
22    H6       5.1910   -8.2761    0.1831 H       1  LIG   0.0500   0.0000 
23    H7       5.5050   -6.6315   -1.6410 H       1  LIG   0.0456   0.0000 
24    H8       6.6837   -7.9352   -1.7880 H       1  LIG   0.0342   0.0000 
25    H9       5.2732   -7.8990   -2.8591 H       1  LIG   0.0313   0.0000 
26    H10      2.9586   -8.4863   -1.9253 H       1  LIG   0.0486   0.0000 
27    H11      2.7806   -8.9913   -0.2609 H       1  LIG   0.0490   0.0000 
28    H12      3.2578   -7.2182    1.6166 H       1  LIG   0.1330   0.1500 
29    H13      2.6108   -4.9538    2.2926 H       1  LIG   0.1304   0.1500 
30    H14      1.8290   -3.9567   -1.8353 H       1  LIG   0.1386   0.1500 
31    H15      2.4705   -6.2155   -2.4998 H       1  LIG   0.1342   0.1500 
32    H16      1.3989   -2.9629    1.7873 H       1  LIG   0.0695   0.0000 
33    H17      0.2952   -1.3130    0.4378 H       1  LIG   0.0360   0.0000 
34    H18      0.8976   -2.0050   -1.0631 H       1  LIG   0.0554   0.0000 
35    H19     -0.2537   -2.9201   -0.0684 H       1  LIG   0.0553   0.0000 
@<TRIPOS>BOND
1     1     2     1
2     1     19    1
3     1     20    1
4     1     21    1
5     2     3     1
6     2     4     1
7     2     22    1
8     3     23    1
9     3     24    1
10    3     25    1
11    4     5     1
12    4     26    1
13    4     27    1
14    5     10    ar
15    5     6     ar
16    6     7     ar
17    6     28    1
18    7     8     ar
19    7     29    1
20    8     9     ar
21    8     11    1
22    9     10    ar
23    9     30    1
24    10    31    1
25    11    12    1
26    11    13    1
27    11    32    1
28    12    33    1
29    12    34    1
30    12    35    1
31    13    14    2
32    13    15    am
33    15    16    1
34    15    17    1
35    16    18    1
@<TRIPOS>SUBSTRUCTURE
1   LIG    1    
 
########## Number      : 59
########## Name        : ZINC00000409
########## Description : AM1BCC_CHARGES =   0.9999 ORIGINAL_CHARGES =   1.0000

@<TRIPOS>MOLECULE
ZINC00000409
33    34    1     0     0    
SMALL
USER_CHARGES
****
****
@<TRIPOS>ATOM
1     C1       3.6381   -3.3930    3.3531 C.3     1  LIG   0.0801   0.5030 
2     C2       3.4919   -5.1321    1.4271 C.3     1  LIG   0.1203   0.7075 
3     C3       2.0709   -5.6315    1.8211 C.3     1  LIG  -0.1091   0.0000 
4     C4       2.0536   -6.7970    2.8212 C.3     1  LIG  -0.0997   0.0000 
5     C5       2.8506   -7.9868    2.3002 C.3     1  LIG  -0.0875   0.0000 
6     C6       4.2628   -7.5907    1.9077 C.3     1  LIG  -0.1846   0.0610 
7     C7       4.2260   -6.4189    0.9450 C.2     1  LIG   0.5356   0.4480 
8     O1       4.7630   -6.5221   -0.1584 O.2     1  LIG  -0.4263  -0.5700 
9     C8       3.5776   -4.0208    0.3358 C.ar    1  LIG  -0.1573  -0.1435 
10    C9       4.8948   -3.6160   -0.0234 C.ar    1  LIG  -0.1127  -0.1500 
11    C10      5.1548   -2.6265   -0.9740 C.ar    1  LIG  -0.1108  -0.1500 
12    C11      4.1017   -1.9918   -1.6067 C.ar    1  LIG  -0.0718  -0.1500 
13    C12      2.7982   -2.3492   -1.2815 C.ar    1  LIG  -0.1195  -0.1500 
14    C13      2.5272   -3.3463   -0.3222 C.ar    1  LIG   0.0517   0.1770 
15    Cl1      0.8399   -3.6054   -0.0557 Cl      1  LIG  -0.0619  -0.1770 
16    H1       4.2762   -3.1751    4.2130 H       1  LIG   0.1019   0.0000 
17    H2       3.6797   -2.5681    2.6400 H       1  LIG   0.1187   0.0000 
18    H3       2.6183   -3.5868    3.6886 H       1  LIG   0.1059   0.0000 
19    H4       1.4694   -4.8238    2.2492 H       1  LIG   0.0822   0.0000 
20    H5       1.5553   -5.9935    0.9221 H       1  LIG   0.1136   0.0000 
21    H6       2.4418   -6.4792    3.7948 H       1  LIG   0.0289   0.0000 
22    H7       1.0157   -7.1075    2.9914 H       1  LIG   0.0930   0.0000 
23    H8       2.8819   -8.7754    3.0602 H       1  LIG   0.0829   0.0000 
24    H9       2.3351   -8.4056    1.4265 H       1  LIG   0.0803   0.0000 
25    H10      4.8651   -7.3220    2.7807 H       1  LIG   0.0553   0.0000 
26    H11      4.7612   -8.4355    1.4194 H       1  LIG   0.1143   0.0000 
27    H12      5.7610   -4.0888    0.4379 H       1  LIG   0.1330   0.1500 
28    H13      6.1795   -2.3601   -1.2162 H       1  LIG   0.1641   0.1500 
29    H14      4.2896   -1.2214   -2.3484 H       1  LIG   0.1682   0.1500 
30    H15      1.9832   -1.8334   -1.7872 H       1  LIG   0.1742   0.1500 
31    N1       4.1806   -4.6278    2.7108 N.4     1  LIG  -0.7620  -0.9060 
32    H16      4.1835   -5.3681    3.4233 H       1  LIG   0.4488   0.4500 
33    H17      5.1765   -4.4650    2.5098 H       1  LIG   0.4501   0.4500 
@<TRIPOS>BOND
1     1     16    1
2     1     17    1
3     1     18    1
4     1     31    1
5     2     7     1
6     2     3     1
7     2     9     1
8     2     31    1
9     3     4     1
10    3     19    1
11    3     20    1
12    4     5     1
13    4     21    1
14    4     22    1
15    5     6     1
16    5     23    1
17    5     24    1
18    6     7     1
19    6     25    1
20    6     26    1
21    7     8     2
22    9     14    ar
23    9     10    ar
24    10    11    ar
25    10    27    1
26    11    12    ar
27    11    28    1
28    12    13    ar
29    12    29    1
30    13    14    ar
31    13    30    1
32    14    15    1
33    31    32    1
34    31    33    1
@<TRIPOS>SUBSTRUCTURE
1   LIG    1    
 
########## Number      : 60
########## Name        : ZINC00000416
########## Description : AM1BCC_CHARGES =   0.9999 ORIGINAL_CHARGES =   1.0000

@<TRIPOS>MOLECULE
ZINC00000416
49    50    1     0     0    
SMALL
USER_CHARGES
****
****
@<TRIPOS>ATOM
1     C1       3.6808   -4.5983   -2.5151 C.3     1  LIG  -0.1365   0.0000 
2     C2       4.2213   -5.3865   -1.3174 C.3     1  LIG   0.1307   0.5030 
3     C3       4.3190   -6.8826   -1.6686 C.3     1  LIG  -0.1076   0.0000 
4     C4       5.5404   -7.5590   -1.0315 C.3     1  LIG  -0.0325   0.1435 
5     C5       5.5683   -9.0383   -1.3216 C.ar    1  LIG  -0.1123  -0.1435 
6     C6       6.2129   -9.5276   -2.4657 C.ar    1  LIG  -0.1169  -0.1500 
7     C7       6.2219  -10.8960   -2.7405 C.ar    1  LIG  -0.1169  -0.1500 
8     C8       5.5840  -11.7859   -1.8782 C.ar    1  LIG  -0.1094  -0.1500 
9     C9       4.9346  -11.3087   -0.7411 C.ar    1  LIG  -0.1204  -0.1500 
10    C10      4.9242   -9.9408   -0.4641 C.ar    1  LIG  -0.1284  -0.1500 
11    C11      3.7097   -5.6855    1.1711 C.3     1  LIG   0.0971   0.5030 
12    C12      2.7101   -5.2013    2.2239 C.3     1  LIG   0.1949   0.4235 
13    C13      3.1692   -5.5905    3.6188 C.ar    1  LIG  -0.2280  -0.1435 
14    C14      3.1401   -6.9238    4.0461 C.ar    1  LIG  -0.0549  -0.1500 
15    C15      3.5791   -7.2671    5.3243 C.ar    1  LIG  -0.2183  -0.1500 
16    C16      4.0561   -6.2812    6.1932 C.ar    1  LIG   0.1949   0.0825 
17    C17      4.0978   -4.9388    5.7931 C.ar    1  LIG  -0.1621   0.0862 
18    C18      3.6542   -4.6092    4.4993 C.ar    1  LIG  -0.0199  -0.1500 
19    C19      4.5933   -3.8131    6.6423 C.2     1  LIG   0.6764   0.5438 
20    O1       4.7888   -2.7026    6.1551 O.2     1  LIG  -0.6239  -0.5700 
21    N1       4.8041   -4.0699    7.9753 N.am    1  LIG  -0.6416  -0.8000 
22    O2       4.4908   -6.6599    7.4347 O.3     1  LIG  -0.4918  -0.5325 
23    O3       1.4453   -5.7914    1.9514 O.3     1  LIG  -0.6369  -0.6800 
24    H1       5.1357   -3.3372    8.5926 H       1  LIG   0.3284   0.3700 
25    H2       4.6489   -4.9841    8.3878 H       1  LIG   0.3259   0.3700 
26    H3       4.3984   -7.6240    7.5247 H       1  LIG   0.4461   0.4500 
27    H4       0.8759   -5.6574    2.7293 H       1  LIG   0.4540   0.4000 
28    H5       4.3531   -4.6907   -3.3748 H       1  LIG   0.0993   0.0000 
29    H6       2.6913   -4.9588   -2.8172 H       1  LIG   0.0709   0.0000 
30    H7       3.5949   -3.5328   -2.2754 H       1  LIG   0.0629   0.0000 
31    H8       5.2108   -4.9694   -1.0706 H       1  LIG   0.1054   0.0000 
32    H9       3.3975   -7.4087   -1.3866 H       1  LIG   0.0690   0.0000 
33    H10      4.4074   -7.0014   -2.7571 H       1  LIG   0.0955   0.0000 
34    H11      6.4600   -7.0972   -1.4137 H       1  LIG   0.0640   0.0000 
35    H12      5.5664   -7.4085    0.0523 H       1  LIG   0.0389   0.0000 
36    H13      6.7113   -8.8458   -3.1502 H       1  LIG   0.1341   0.1500 
37    H14      6.7256  -11.2675   -3.6284 H       1  LIG   0.1472   0.1500 
38    H15      5.5913  -12.8506   -2.0933 H       1  LIG   0.1479   0.1500 
39    H16      4.4350  -12.0019   -0.0705 H       1  LIG   0.1422   0.1500 
40    H17      4.4100   -9.5835    0.4246 H       1  LIG   0.1176   0.1500 
41    H18      3.7167   -6.7774    1.1088 H       1  LIG   0.1161   0.0000 
42    H19      4.7185   -5.3028    1.3569 H       1  LIG   0.1131   0.0000 
43    H20      2.6215   -4.1037    2.1887 H       1  LIG   0.0675   0.0000 
44    H21      2.7750   -7.7075    3.3864 H       1  LIG   0.1434   0.1500 
45    H22      3.5466   -8.3098    5.6297 H       1  LIG   0.1557   0.1500 
46    H23      3.6802   -3.5732    4.1650 H       1  LIG   0.1718   0.1500 
47    N2       3.2782   -5.1827   -0.1754 N.4     1  LIG  -0.7621  -0.9060 
48    H24      3.1013   -4.1720   -0.0901 H       1  LIG   0.4452   0.4500 
49    H25      2.3605   -5.5959   -0.3986 H       1  LIG   0.4642   0.4500 
@<TRIPOS>BOND
1     1     2     1
2     1     28    1
3     1     29    1
4     1     30    1
5     2     3     1
6     2     31    1
7     2     47    1
8     3     4     1
9     3     32    1
10    3     33    1
11    4     5     1
12    4     34    1
13    4     35    1
14    5     10    ar
15    5     6     ar
16    6     7     ar
17    6     36    1
18    7     8     ar
19    7     37    1
20    8     9     ar
21    8     38    1
22    9     10    ar
23    9     39    1
24    10    40    1
25    11    12    1
26    11    41    1
27    11    42    1
28    11    47    1
29    12    13    1
30    12    23    1
31    12    43    1
32    13    18    ar
33    13    14    ar
34    14    15    ar
35    14    44    1
36    15    16    ar
37    15    45    1
38    16    17    ar
39    16    22    1
40    17    18    ar
41    17    19    1
42    18    46    1
43    19    20    2
44    19    21    am
45    21    24    1
46    21    25    1
47    22    26    1
48    23    27    1
49    47    48    1
50    47    49    1
@<TRIPOS>SUBSTRUCTURE
1   LIG    1    
 
########## Number      : 61
########## Name        : ZINC00000427
########## Description : AM1BCC_CHARGES =  -0.0002 ORIGINAL_CHARGES =   0.0000

@<TRIPOS>MOLECULE
ZINC00000427
38    40    1     0     0    
SMALL
USER_CHARGES
****
****
@<TRIPOS>ATOM
1     C1       6.3894    0.3450    0.5758 C.3     1  LIG  -0.0962   0.0000 
2     C2       4.8707    0.3361    0.4276 C.3     1  LIG   0.1432   0.2800 
3     C3       4.2773    1.6789    0.8416 C.3     1  LIG  -0.1165   0.0000 
4     C4       2.7292    1.6346    0.8488 C.3     1  LIG  -0.0123   0.1435 
5     C5       2.1886    0.1947    0.5864 C.3     1  LIG  -0.0899   0.2045 
6     C6       2.9884   -0.8026    1.4108 C.2     1  LIG   0.7136   0.6590 
7     O1       2.4965   -1.6886    2.1014 O.2     1  LIG  -0.5617  -0.5700 
8     O2       4.3401   -0.6861    1.2807 O.3     1  LIG  -0.4152  -0.4300 
9     C7       0.7002    0.0898    0.9045 C.ar    1  LIG  -0.0790  -0.1435 
10    C8       0.1879    0.3766    2.1805 C.ar    1  LIG  -0.1060  -0.1500 
11    C9      -1.1816    0.2841    2.4363 C.ar    1  LIG  -0.1283  -0.1500 
12    C10     -2.0575   -0.0967    1.4228 C.ar    1  LIG  -0.1206  -0.1500 
13    C11     -1.5650   -0.3880    0.1531 C.ar    1  LIG  -0.1291  -0.1500 
14    C12     -0.1959   -0.2970   -0.1048 C.ar    1  LIG  -0.1112  -0.1500 
15    C13      2.1636    2.5968   -0.1867 C.ar    1  LIG  -0.0792  -0.1435 
16    C14      1.2546    3.5856    0.2227 C.ar    1  LIG  -0.1070  -0.1500 
17    C15      0.7008    4.4750   -0.7002 C.ar    1  LIG  -0.1206  -0.1500 
18    C16      1.0525    4.3825   -2.0447 C.ar    1  LIG   0.0187   0.1770 
19    C17      1.9522    3.4089   -2.4725 C.ar    1  LIG  -0.1221  -0.1500 
20    C18      2.5038    2.5204   -1.5471 C.ar    1  LIG  -0.1219  -0.1500 
21    Cl1      0.3700    5.4770   -3.1850 Cl      1  LIG  -0.0909  -0.1770 
22    H1       6.8035   -0.6284    0.2912 H       1  LIG   0.0588   0.0000 
23    H2       6.8464    1.1163   -0.0516 H       1  LIG   0.0453   0.0000 
24    H3       6.6822    0.5176    1.6173 H       1  LIG   0.0540   0.0000 
25    H4       4.6537    0.1171   -0.6289 H       1  LIG   0.0445   0.0000 
26    H5       4.6003    1.8966    1.8699 H       1  LIG   0.0647   0.0000 
27    H6       4.6782    2.4907    0.2234 H       1  LIG   0.0688   0.0000 
28    H7       2.4539    1.9604    1.8670 H       1  LIG   0.0710   0.0000 
29    H8       2.3231   -0.0319   -0.4866 H       1  LIG   0.0848   0.0000 
30    H9       0.8514    0.6685    2.9906 H       1  LIG   0.1353   0.1500 
31    H10     -1.5636    0.5078    3.4283 H       1  LIG   0.1339   0.1500 
32    H11     -3.1226   -0.1684    1.6228 H       1  LIG   0.1332   0.1500 
33    H12     -2.2468   -0.6862   -0.6383 H       1  LIG   0.1336   0.1500 
34    H13      0.1647   -0.5266   -1.1046 H       1  LIG   0.1306   0.1500 
35    H14      0.9657    3.6678    1.2680 H       1  LIG   0.1416   0.1500 
36    H15     -0.0017    5.2300   -0.3576 H       1  LIG   0.1499   0.1500 
37    H16      2.2313    3.3292   -3.5198 H       1  LIG   0.1485   0.1500 
38    H17      3.2016    1.7661   -1.9013 H       1  LIG   0.1335   0.1500 
@<TRIPOS>BOND
1     1     2     1
2     1     22    1
3     1     23    1
4     1     24    1
5     2     8     1
6     2     3     1
7     2     25    1
8     3     4     1
9     3     26    1
10    3     27    1
11    4     5     1
12    4     15    1
13    4     28    1
14    5     6     1
15    5     9     1
16    5     29    1
17    6     7     2
18    6     8     1
19    9     14    ar
20    9     10    ar
21    10    11    ar
22    10    30    1
23    11    12    ar
24    11    31    1
25    12    13    ar
26    12    32    1
27    13    14    ar
28    13    33    1
29    14    34    1
30    15    20    ar
31    15    16    ar
32    16    17    ar
33    16    35    1
34    17    18    ar
35    17    36    1
36    18    19    ar
37    18    21    1
38    19    20    ar
39    19    37    1
40    20    38    1
@<TRIPOS>SUBSTRUCTURE
1   LIG    1    
 
########## Number      : 62
########## Name        : ZINC00000445
########## Description : AM1BCC_CHARGES =  -0.0003 ORIGINAL_CHARGES =  -0.0000

@<TRIPOS>MOLECULE
ZINC00000445
57    60    1     0     0    
SMALL
USER_CHARGES
****
****
@<TRIPOS>ATOM
1     C1      -0.8378   -9.6877    5.7796 C.3     1  LIG  -0.0875   0.0000 
2     C2      -0.7546   -9.2770    4.3025 C.3     1  LIG  -0.0368   0.1382 
3     C3       0.6307   -8.7700    3.8938 C.3     1  LIG  -0.0695   0.0000 
4     C4       0.8621   -7.2315    3.8919 C.3     1  LIG  -0.0416   0.0000 
5     C5       2.3045   -6.9440    4.3592 C.3     1  LIG  -0.0675   0.0000 
6     C6       3.4785   -7.5995    3.6315 C.3     1  LIG  -0.0728   0.0000 
7     C7       4.6920   -6.7402    4.0740 C.3     1  LIG  -0.0703   0.0000 
8     C8       4.1146   -5.5138    4.8499 C.3     1  LIG  -0.1677   0.0610 
9     C9       2.6701   -5.4587    4.3396 C.3     1  LIG  -0.0293   0.0000 
10    C10      1.6997   -4.7351    5.3005 C.3     1  LIG  -0.1055   0.0000 
11    C11      0.2111   -4.9865    4.9512 C.3     1  LIG   0.1530   0.2800 
12    C12     -0.1208   -6.5125    4.8620 C.3     1  LIG  -0.0404   0.0000 
13    C13     -1.6479   -6.8060    4.5109 C.3     1  LIG  -0.0060   0.1382 
14    C14     -1.8005   -8.2347    3.9675 C.2     1  LIG  -0.0223  -0.2764 
15    C15     -2.7875   -8.5946    3.1252 C.2     1  LIG  -0.2626  -0.1356 
16    C16     -3.8191   -7.6408    2.6643 C.2     1  LIG   0.5695   0.4946 
17    O1      -4.7641   -8.0459    1.9896 O.2     1  LIG  -0.5435  -0.5700 
18    C17     -3.6996   -6.1978    3.0679 C.3     1  LIG  -0.1820   0.0610 
19    C18     -2.2720   -5.8363    3.4699 C.3     1  LIG  -0.0638   0.0000 
20    C19     -2.4465   -6.6577    5.8342 C.3     1  LIG  -0.0909   0.0000 
21    O2      -0.0553   -4.3370    3.7210 O.3     1  LIG  -0.6050  -0.6800 
22    C20      2.5990   -4.8364    2.9127 C.3     1  LIG  -0.0995   0.0000 
23    C21      4.9089   -4.2237    4.6013 C.2     1  LIG   0.5785   0.4480 
24    O3       4.3737   -3.1160    4.5425 O.2     1  LIG  -0.5384  -0.5700 
25    C22      6.4135   -4.3311    4.5491 C.3     1  LIG  -0.2028   0.0610 
26    H1       0.1177   -3.3878    3.8427 H       1  LIG   0.4065   0.4000 
27    H2      -0.2219  -10.5781    5.9522 H       1  LIG   0.0362   0.0000 
28    H3      -0.4729   -8.9190    6.4633 H       1  LIG   0.0364   0.0000 
29    H4      -1.8654   -9.9411    6.0632 H       1  LIG   0.0428   0.0000 
30    H5      -0.9430  -10.2200    3.7598 H       1  LIG   0.0552   0.0000 
31    H6       1.3755   -9.2750    4.5223 H       1  LIG   0.0434   0.0000 
32    H7       0.8408   -9.1254    2.8746 H       1  LIG   0.0445   0.0000 
33    H8       0.6965   -6.9152    2.8516 H       1  LIG   0.0720   0.0000 
34    H9       2.3479   -7.3687    5.3825 H       1  LIG   0.0414   0.0000 
35    H10      3.6155   -8.6486    3.9114 H       1  LIG   0.0453   0.0000 
36    H11      3.3530   -7.5549    2.5440 H       1  LIG   0.0508   0.0000 
37    H12      5.3516   -7.3201    4.7297 H       1  LIG   0.0432   0.0000 
38    H13      5.2765   -6.4553    3.1932 H       1  LIG   0.0467   0.0000 
39    H14      4.2012   -5.7436    5.9264 H       1  LIG   0.0722   0.0000 
40    H15      1.8751   -5.0796    6.3281 H       1  LIG   0.0486   0.0000 
41    H16      1.9000   -3.6572    5.2905 H       1  LIG   0.0656   0.0000 
42    H17     -0.3934   -4.5312    5.7507 H       1  LIG   0.0322   0.0000 
43    H18      0.0958   -6.9678    5.8474 H       1  LIG   0.0481   0.0000 
44    H19     -2.8708   -9.6045    2.7366 H       1  LIG   0.1454   0.1500 
45    H20     -3.9960   -5.5759    2.2156 H       1  LIG   0.0743   0.0000 
46    H21     -4.4035   -6.0076    3.8845 H       1  LIG   0.0678   0.0000 
47    H22     -2.3149   -4.8139    3.8612 H       1  LIG   0.0639   0.0000 
48    H23     -1.6549   -5.8283    2.5614 H       1  LIG   0.0663   0.0000 
49    H24     -2.4860   -5.6117    6.1576 H       1  LIG   0.0389   0.0000 
50    H25     -3.4786   -7.0112    5.7345 H       1  LIG   0.0430   0.0000 
51    H26     -2.0013   -7.2318    6.6526 H       1  LIG   0.0375   0.0000 
52    H27      2.5655   -3.7426    2.9545 H       1  LIG   0.0510   0.0000 
53    H28      3.4674   -5.1034    2.3006 H       1  LIG   0.0323   0.0000 
54    H29      1.7260   -5.1578    2.3417 H       1  LIG   0.0600   0.0000 
55    H30      6.8540   -3.3377    4.6760 H       1  LIG   0.0684   0.0000 
56    H31      6.7687   -4.9681    5.3631 H       1  LIG   0.0572   0.0000 
57    H32      6.7287   -4.7321    3.5838 H       1  LIG   0.0673   0.0000 
@<TRIPOS>BOND
1     1     2     1
2     1     27    1
3     1     28    1
4     1     29    1
5     2     14    1
6     2     3     1
7     2     30    1
8     3     4     1
9     3     31    1
10    3     32    1
11    4     12    1
12    4     5     1
13    4     33    1
14    5     9     1
15    5     6     1
16    5     34    1
17    6     7     1
18    6     35    1
19    6     36    1
20    7     8     1
21    7     37    1
22    7     38    1
23    8     9     1
24    8     23    1
25    8     39    1
26    9     10    1
27    9     22    1
28    10    11    1
29    10    40    1
30    10    41    1
31    11    12    1
32    11    21    1
33    11    42    1
34    12    13    1
35    12    43    1
36    13    19    1
37    13    14    1
38    13    20    1
39    14    15    2
40    15    16    1
41    15    44    1
42    16    17    2
43    16    18    1
44    18    19    1
45    18    45    1
46    18    46    1
47    19    47    1
48    19    48    1
49    20    49    1
50    20    50    1
51    20    51    1
52    21    26    1
53    22    52    1
54    22    53    1
55    22    54    1
56    23    24    2
57    23    25    1
58    25    55    1
59    25    56    1
60    25    57    1
@<TRIPOS>SUBSTRUCTURE
1   LIG    1    
 
########## Number      : 63
########## Name        : ZINC00000446
########## Description : AM1BCC_CHARGES =  -1.0004 ORIGINAL_CHARGES =  -1.0000

@<TRIPOS>MOLECULE
ZINC00000446
32    33    1     0     0    
SMALL
USER_CHARGES
****
****
@<TRIPOS>ATOM
1     C1       4.7628   -9.4819   -0.9412 C.3     1  LIG   0.1156   0.2800 
2     O1       4.1500   -8.1985   -0.9599 O.3     1  LIG  -0.3332  -0.3625 
3     C2       4.3342   -7.3853    0.1352 C.ar    1  LIG   0.1325   0.0825 
4     C3       5.0866   -7.7534    1.2547 C.ar    1  LIG  -0.2164  -0.1500 
5     C4       5.2256   -6.8782    2.3264 C.ar    1  LIG  -0.0698  -0.1500 
6     C5       4.6133   -5.6235    2.2884 C.ar    1  LIG  -0.1632   0.0862 
7     C6       3.8491   -5.2093    1.1699 C.ar    1  LIG   0.0143   0.0000 
8     C7       3.7087   -6.1105    0.0796 C.ar    1  LIG  -0.0564   0.0000 
9     C8       2.9460   -5.7014   -1.0387 C.ar    1  LIG  -0.1042  -0.1500 
10    C9       2.3431   -4.4457   -1.0993 C.ar    1  LIG  -0.1448  -0.1500 
11    C10      2.4899   -3.5618   -0.0428 C.ar    1  LIG  -0.1293  -0.1500 
12    C11      3.2344   -3.9371    1.0750 C.ar    1  LIG  -0.1088  -0.1500 
13    C12      4.7795   -4.7602    3.4828 C.2     1  LIG   0.5756   0.4228 
14    O2       3.7836   -4.3610    4.0777 O.2     1  LIG  -0.5507  -0.5700 
15    C13      6.1989   -4.4570    3.9256 C.3     1  LIG  -0.1540   0.0610 
16    C14      6.2975   -3.0887    4.5875 C.3     1  LIG  -0.1938  -0.1060 
17    C15      7.7115   -2.6791    5.0079 C.2     1  LIG   0.9104   0.9060 
18    O3       8.6208   -3.5377    4.8425 O.co2   1  LIG  -0.8569  -0.9000 
19    H1       4.5131   -9.9838   -1.8810 H       1  LIG   0.0559   0.0000 
20    H2       5.8533   -9.3982   -0.8896 H       1  LIG   0.0349   0.0000 
21    H3       4.3704  -10.0951   -0.1234 H       1  LIG   0.0310   0.0000 
22    H4       5.5760   -8.7195    1.3283 H       1  LIG   0.1331   0.1500 
23    H5       5.8029   -7.1945    3.1917 H       1  LIG   0.1463   0.1500 
24    H6       2.8131   -6.3657   -1.8909 H       1  LIG   0.1383   0.1500 
25    H7       1.7650   -4.1615   -1.9736 H       1  LIG   0.1220   0.1500 
26    H8       2.0292   -2.5792   -0.0841 H       1  LIG   0.1277   0.1500 
27    H9       3.3316   -3.2080    1.8766 H       1  LIG   0.1606   0.1500 
28    H10      6.5123   -5.2415    4.6237 H       1  LIG   0.0843   0.0000 
29    H11      6.8628   -4.4901    3.0536 H       1  LIG   0.0709   0.0000 
30    H12      5.9108   -2.3225    3.9035 H       1  LIG   0.0284   0.0000 
31    H13      5.6645   -3.0635    5.4835 H       1  LIG   0.0405   0.0000 
32    O4       7.7912   -1.5081    5.4796 O.co2   1  LIG  -0.8412  -0.9000 
@<TRIPOS>BOND
1     1     2     1
2     1     19    1
3     1     20    1
4     1     21    1
5     2     3     1
6     3     8     ar
7     3     4     ar
8     4     5     ar
9     4     22    1
10    5     6     ar
11    5     23    1
12    6     7     ar
13    6     13    1
14    7     12    ar
15    7     8     ar
16    8     9     ar
17    9     10    ar
18    9     24    1
19    10    11    ar
20    10    25    1
21    11    12    ar
22    11    26    1
23    12    27    1
24    13    14    2
25    13    15    1
26    15    16    1
27    15    28    1
28    15    29    1
29    16    17    1
30    16    30    1
31    16    31    1
32    17    18    2
33    17    32    1
@<TRIPOS>SUBSTRUCTURE
1   LIG    1    
 
########## Number      : 64
########## Name        : ZINC00000449
########## Description : AM1BCC_CHARGES =   0.9999 ORIGINAL_CHARGES =   1.0000

@<TRIPOS>MOLECULE
ZINC00000449
51    53    1     0     0    
SMALL
USER_CHARGES
****
****
@<TRIPOS>ATOM
1     C1       6.8378  -12.7790    0.8877 C.3     1  LIG   0.0913   0.5030 
2     N1       7.5033  -11.4587    1.3008 N.4     1  LIG  -0.5975  -1.0120 
3     C2       8.1531  -11.6646    2.6753 C.3     1  LIG   0.1172   0.5030 
4     C3       8.6827  -10.3593    3.2591 C.3     1  LIG  -0.0979   0.0000 
5     C4       7.5990   -9.2921    3.3384 C.3     1  LIG  -0.1314   0.0000 
6     C5       6.9422   -9.0748    1.9709 C.3     1  LIG   0.1539   0.2800 
7     C6       6.4122  -10.3793    1.3727 C.3     1  LIG   0.0667   0.5030 
8     O1       5.8833   -8.0942    2.0651 O.3     1  LIG  -0.3992  -0.4300 
9     C7       4.7699   -8.2721    2.8381 C.2     1  LIG   0.6202   0.6590 
10    O2       4.5185   -9.2817    3.4845 O.2     1  LIG  -0.5502  -0.5700 
11    C8       3.8329   -7.0605    2.7208 C.3     1  LIG   0.2514   0.6280 
12    C9       2.7191   -7.0312    3.7731 C.ar    1  LIG  -0.1437  -0.1435 
13    C10      2.9870   -7.2987    5.1277 C.ar    1  LIG  -0.0961  -0.1500 
14    C11      1.9760   -7.2311    6.0896 C.ar    1  LIG  -0.1243  -0.1500 
15    C12      0.6817   -6.8784    5.7194 C.ar    1  LIG  -0.1033  -0.1500 
16    C13      0.3993   -6.5845    4.3888 C.ar    1  LIG  -0.1221  -0.1500 
17    C14      1.4094   -6.6522    3.4260 C.ar    1  LIG  -0.1129  -0.1500 
18    C15      4.5684   -5.7193    2.6847 C.ar    1  LIG  -0.0964  -0.1435 
19    C16      5.5838   -5.4299    3.6147 C.ar    1  LIG  -0.1193  -0.1500 
20    C17      6.2383   -4.1963    3.6031 C.ar    1  LIG  -0.1278  -0.1500 
21    C18      5.8826   -3.2262    2.6703 C.ar    1  LIG  -0.1097  -0.1500 
22    C19      4.8692   -3.4870    1.7520 C.ar    1  LIG  -0.1264  -0.1500 
23    C20      4.2138   -4.7206    1.7617 C.ar    1  LIG  -0.0867  -0.1500 
24    O3       3.2819   -7.3468    1.4159 O.3     1  LIG  -0.5747  -0.6800 
25    C21      8.5478  -11.1284    0.2351 C.3     1  LIG   0.0873   0.5030 
26    H1       2.6351   -8.0679    1.5106 H       1  LIG   0.4230   0.4000 
27    H2       7.6095  -13.5528    0.8351 H       1  LIG   0.0984   0.0000 
28    H3       6.0865  -13.0411    1.6386 H       1  LIG   0.1044   0.0000 
29    H4       6.3671  -12.6366   -0.0897 H       1  LIG   0.1008   0.0000 
30    H5       7.3850  -12.0877    3.3339 H       1  LIG   0.1045   0.0000 
31    H6       8.9574  -12.3992    2.5559 H       1  LIG   0.0967   0.0000 
32    H7       9.0744  -10.5500    4.2652 H       1  LIG   0.1025   0.0000 
33    H8       9.5277   -9.9887    2.6683 H       1  LIG   0.0671   0.0000 
34    H9       6.8619   -9.5898    4.0915 H       1  LIG   0.0950   0.0000 
35    H10      8.0231   -8.3469    3.6983 H       1  LIG   0.0960   0.0000 
36    H11      7.7283   -8.6680    1.3143 H       1  LIG   0.0946   0.0000 
37    H12      6.0281  -10.2196    0.3580 H       1  LIG   0.1071   0.0000 
38    H13      5.5973  -10.8010    1.9689 H       1  LIG   0.1304   0.0000 
39    H14      3.9902   -7.5613    5.4545 H       1  LIG   0.1328   0.1500 
40    H15      2.2027   -7.4489    7.1295 H       1  LIG   0.1434   0.1500 
41    H16     -0.1033   -6.8236    6.4680 H       1  LIG   0.1464   0.1500 
42    H17     -0.6068   -6.2951    4.0986 H       1  LIG   0.1466   0.1500 
43    H18      1.1596   -6.3949    2.3993 H       1  LIG   0.1426   0.1500 
44    H19      5.8783   -6.1648    4.3601 H       1  LIG   0.1204   0.1500 
45    H20      7.0236   -3.9925    4.3255 H       1  LIG   0.1387   0.1500 
46    H21      6.3904   -2.2662    2.6624 H       1  LIG   0.1434   0.1500 
47    H22      4.5842   -2.7284    1.0284 H       1  LIG   0.1447   0.1500 
48    H23      3.4184   -4.8893    1.0397 H       1  LIG   0.1521   0.1500 
49    H24      9.0587  -10.1998    0.4934 H       1  LIG   0.1018   0.0000 
50    H25      9.2679  -11.9511    0.1929 H       1  LIG   0.0975   0.0000 
51    H26      8.0361  -11.0208   -0.7260 H       1  LIG   0.1006   0.0000 
@<TRIPOS>BOND
1     1     2     1
2     1     27    1
3     1     28    1
4     1     29    1
5     2     7     1
6     2     3     1
7     2     25    1
8     3     4     1
9     3     30    1
10    3     31    1
11    4     5     1
12    4     32    1
13    4     33    1
14    5     6     1
15    5     34    1
16    5     35    1
17    6     7     1
18    6     8     1
19    6     36    1
20    7     37    1
21    7     38    1
22    8     9     1
23    9     10    2
24    9     11    1
25    11    12    1
26    11    18    1
27    11    24    1
28    12    17    ar
29    12    13    ar
30    13    14    ar
31    13    39    1
32    14    15    ar
33    14    40    1
34    15    16    ar
35    15    41    1
36    16    17    ar
37    16    42    1
38    17    43    1
39    18    23    ar
40    18    19    ar
41    19    20    ar
42    19    44    1
43    20    21    ar
44    20    45    1
45    21    22    ar
46    21    46    1
47    22    23    ar
48    22    47    1
49    23    48    1
50    24    26    1
51    25    49    1
52    25    50    1
53    25    51    1
@<TRIPOS>SUBSTRUCTURE
1   LIG    1    
 
########## Number      : 65
########## Name        : ZINC00000453
########## Description : AM1BCC_CHARGES =   0.0002 ORIGINAL_CHARGES =  -0.0000

@<TRIPOS>MOLECULE
ZINC00000453
30    31    1     0     0    
SMALL
USER_CHARGES
****
****
@<TRIPOS>ATOM
1     C1       3.0223   -3.6180    0.4178 C.3     1  LIG  -0.1070   0.0000 
2     C2       3.3793   -2.2286    0.9392 C.3     1  LIG  -0.0582   0.0000 
3     C3       4.2578   -1.3532    0.0025 C.3     1  LIG   0.0663   0.5046 
4     C4       3.3490   -0.8766   -1.1518 C.2     1  LIG   0.6970   0.5690 
5     O1       2.8162   -1.5842   -1.9951 O.2     1  LIG  -0.5767  -0.5700 
6     N1       3.2512    0.4991   -1.0433 N.am    1  LIG  -0.5171  -0.4201 
7     C5       3.9803    0.9842    0.0259 C.2     1  LIG   0.7825   0.6900 
8     O2       4.0975    2.1487    0.3829 O.2     1  LIG  -0.6051  -0.5700 
9     N2       4.5830   -0.1090    0.6490 N.am    1  LIG  -0.5137  -0.7301 
10    C6       2.4770    1.3188   -1.9514 C.3     1  LIG   0.0948   0.3001 
11    C7       5.5339   -2.0540   -0.4620 C.ar    1  LIG  -0.1131  -0.1435 
12    C8       6.3988   -2.6269    0.4916 C.ar    1  LIG  -0.1193  -0.1500 
13    C9       7.5870   -3.2556    0.1113 C.ar    1  LIG  -0.1299  -0.1500 
14    C10      7.9445   -3.3145   -1.2311 C.ar    1  LIG  -0.1161  -0.1500 
15    C11      7.1175   -2.7381   -2.1900 C.ar    1  LIG  -0.1271  -0.1500 
16    C12      5.9279   -2.1084   -1.8095 C.ar    1  LIG  -0.1058  -0.1500 
17    H1       5.1872   -0.0184    1.4590 H       1  LIG   0.3190   0.3700 
18    H2       2.4134   -4.1437    1.1612 H       1  LIG   0.0399   0.0000 
19    H3       2.4391   -3.5705   -0.5050 H       1  LIG   0.0636   0.0000 
20    H4       3.9115   -4.2274    0.2348 H       1  LIG   0.0436   0.0000 
21    H5       2.4416   -1.6995    1.1601 H       1  LIG   0.0590   0.0000 
22    H6       3.8776   -2.3479    1.9102 H       1  LIG   0.0539   0.0000 
23    H7       1.4373    0.9797   -1.9294 H       1  LIG   0.0478   0.0000 
24    H8       2.5344    2.3737   -1.6733 H       1  LIG   0.0760   0.0000 
25    H9       2.8622    1.1761   -2.9653 H       1  LIG   0.0472   0.0000 
26    H10      6.1567   -2.5861    1.5510 H       1  LIG   0.1366   0.1500 
27    H11      8.2335   -3.6946    0.8658 H       1  LIG   0.1373   0.1500 
28    H12      8.8682   -3.8015   -1.5292 H       1  LIG   0.1369   0.1500 
29    H13      7.3983   -2.7726   -3.2390 H       1  LIG   0.1393   0.1500 
30    H14      5.3262   -1.6605   -2.5953 H       1  LIG   0.1486   0.1500 
@<TRIPOS>BOND
1     1     2     1
2     1     18    1
3     1     19    1
4     1     20    1
5     2     3     1
6     2     21    1
7     2     22    1
8     3     9     1
9     3     4     1
10    3     11    1
11    4     5     2
12    4     6     am
13    6     7     am
14    6     10    1
15    7     8     2
16    7     9     am
17    9     17    1
18    10    23    1
19    10    24    1
20    10    25    1
21    11    16    ar
22    11    12    ar
23    12    13    ar
24    12    26    1
25    13    14    ar
26    13    27    1
27    14    15    ar
28    14    28    1
29    15    16    ar
30    15    29    1
31    16    30    1
@<TRIPOS>SUBSTRUCTURE
1   LIG    1    
 
########## Number      : 66
########## Name        : ZINC00000455
########## Description : AM1BCC_CHARGES =   1.0000 ORIGINAL_CHARGES =   1.0000

@<TRIPOS>MOLECULE
ZINC00000455
53    54    1     0     0    
SMALL
USER_CHARGES
****
****
@<TRIPOS>ATOM
1     C1      -0.0517    3.4761    4.8339 C.3     1  LIG  -0.0940   0.0000 
2     C2      -0.4656    4.6176    3.8902 C.3     1  LIG  -0.0651   0.0000 
3     C3      -0.3526    4.1108    2.4459 C.3     1  LIG  -0.1023   0.0000 
4     C4      -1.9096    5.1418    4.2303 C.3     1  LIG  -0.0452   0.1435 
5     C5      -1.9954    5.6773    5.6583 C.ar    1  LIG  -0.0983  -0.1435 
6     C6      -1.1285    6.6644    6.1524 C.ar    1  LIG  -0.1182  -0.1500 
7     C7      -1.2478    7.1288    7.4643 C.ar    1  LIG  -0.1246  -0.1500 
8     C8      -2.2339    6.6142    8.3020 C.ar    1  LIG  -0.1205  -0.1500 
9     C9      -3.1020    5.6338    7.8294 C.ar    1  LIG  -0.1288  -0.1500 
10    C10     -2.9840    5.1685    6.5183 C.ar    1  LIG  -0.1382  -0.1500 
11    C11     -2.3782    6.2231    3.2101 C.3     1  LIG   0.1550   0.2800 
12    C12     -3.7609    6.8265    3.5488 C.3     1  LIG  -0.1041   0.0000 
13    C13     -4.2854    7.7096    2.4102 C.3     1  LIG   0.1149   0.5030 
14    N1      -5.6923    8.3192    2.6726 N.4     1  LIG  -0.6032  -1.0120 
15    C14     -6.7371    7.2029    2.7930 C.3     1  LIG   0.1169   0.5030 
16    C15     -8.1538    7.7549    2.9269 C.3     1  LIG  -0.1028   0.0000 
17    C16     -8.4569    8.9222    1.9962 C.3     1  LIG  -0.0952   0.0000 
18    C17     -7.4108    9.0536    0.9067 C.3     1  LIG  -0.1006   0.0000 
19    C18     -6.0083    9.2546    1.4697 C.3     1  LIG   0.1147   0.5030 
20    C19     -5.6588    9.1559    3.9577 C.3     1  LIG   0.0903   0.5030 
21    O1      -1.4176    7.2695    3.1527 O.3     1  LIG  -0.6172  -0.6800 
22    H1      -1.5073    7.7143    2.2934 H       1  LIG   0.4297   0.4000 
23    H2      -0.0046    3.8082    5.8753 H       1  LIG   0.0520   0.0000 
24    H3      -0.7555    2.6388    4.7741 H       1  LIG   0.0394   0.0000 
25    H4       0.9431    3.0986    4.5730 H       1  LIG   0.0493   0.0000 
26    H5       0.2673    5.4247    4.0111 H       1  LIG   0.0495   0.0000 
27    H6      -0.4531    4.9278    1.7252 H       1  LIG   0.0240   0.0000 
28    H7       0.6269    3.6529    2.2685 H       1  LIG   0.0587   0.0000 
29    H8      -1.1198    3.3604    2.2278 H       1  LIG   0.0396   0.0000 
30    H9      -2.5593    4.2501    4.1511 H       1  LIG   0.0643   0.0000 
31    H10     -0.3491    7.0859    5.5235 H       1  LIG   0.1361   0.1500 
32    H11     -0.5687    7.8932    7.8315 H       1  LIG   0.1432   0.1500 
33    H12     -2.3247    6.9760    9.3220 H       1  LIG   0.1447   0.1500 
34    H13     -3.8715    5.2297    8.4810 H       1  LIG   0.1407   0.1500 
35    H14     -3.6739    4.4027    6.1712 H       1  LIG   0.1282   0.1500 
36    H15     -2.4783    5.7478    2.2213 H       1  LIG   0.0434   0.0000 
37    H16     -4.4555    6.0045    3.7450 H       1  LIG   0.0635   0.0000 
38    H17     -3.6769    7.4337    4.4553 H       1  LIG   0.0878   0.0000 
39    H18     -3.6120    8.5578    2.2396 H       1  LIG   0.1194   0.0000 
40    H19     -4.3647    7.1309    1.4820 H       1  LIG   0.0902   0.0000 
41    H20     -6.6419    6.5756    1.8989 H       1  LIG   0.0945   0.0000 
42    H21     -6.4975    6.5957    3.6710 H       1  LIG   0.0967   0.0000 
43    H22     -8.8595    6.9385    2.7291 H       1  LIG   0.0926   0.0000 
44    H23     -8.3448    8.0615    3.9626 H       1  LIG   0.0710   0.0000 
45    H24     -9.4507    8.7938    1.5520 H       1  LIG   0.0885   0.0000 
46    H25     -8.4991    9.8530    2.5749 H       1  LIG   0.0595   0.0000 
47    H26     -7.4287    8.1608    0.2690 H       1  LIG   0.0700   0.0000 
48    H27     -7.6595    9.8983    0.2537 H       1  LIG   0.0963   0.0000 
49    H28     -5.8657   10.2869    1.8095 H       1  LIG   0.0980   0.0000 
50    H29     -5.2737    9.0638    0.6789 H       1  LIG   0.0989   0.0000 
51    H30     -6.5713    9.7542    4.0169 H       1  LIG   0.0965   0.0000 
52    H31     -5.6019    8.4828    4.8170 H       1  LIG   0.0992   0.0000 
53    H32     -4.7845    9.8124    3.9180 H       1  LIG   0.1011   0.0000 
@<TRIPOS>BOND
1     1     2     1
2     1     23    1
3     1     24    1
4     1     25    1
5     2     3     1
6     2     4     1
7     2     26    1
8     3     27    1
9     3     28    1
10    3     29    1
11    4     5     1
12    4     11    1
13    4     30    1
14    5     10    ar
15    5     6     ar
16    6     7     ar
17    6     31    1
18    7     8     ar
19    7     32    1
20    8     9     ar
21    8     33    1
22    9     10    ar
23    9     34    1
24    10    35    1
25    11    12    1
26    11    21    1
27    11    36    1
28    12    13    1
29    12    37    1
30    12    38    1
31    13    14    1
32    13    39    1
33    13    40    1
34    14    19    1
35    14    15    1
36    14    20    1
37    15    16    1
38    15    41    1
39    15    42    1
40    16    17    1
41    16    43    1
42    16    44    1
43    17    18    1
44    17    45    1
45    17    46    1
46    18    19    1
47    18    47    1
48    18    48    1
49    19    49    1
50    19    50    1
51    20    51    1
52    20    52    1
53    20    53    1
54    21    22    1
@<TRIPOS>SUBSTRUCTURE
1   LIG    1    
 
########## Number      : 67
########## Name        : ZINC00000462
########## Description : AM1BCC_CHARGES =  -0.0003 ORIGINAL_CHARGES =  -0.0000

@<TRIPOS>MOLECULE
ZINC00000462
37    37    1     0     0    
SMALL
USER_CHARGES
****
****
@<TRIPOS>ATOM
1     C1       3.9786   -8.3199    2.2981 C.ar    1  LIG  -0.1254  -0.1500 
2     C2       4.6000   -7.9614    3.4864 C.ar    1  LIG  -0.1121  -0.1500 
3     C3       5.2399   -6.7272    3.5882 C.ar    1  LIG  -0.1541  -0.1500 
4     C4       5.2613   -5.8190    2.5105 C.ar    1  LIG   0.1204   0.1000 
5     C5       4.6191   -6.1836    1.3022 C.ar    1  LIG  -0.0480  -0.1435 
6     C6       3.9963   -7.4439    1.2138 C.ar    1  LIG  -0.1186  -0.1500 
7     C7       4.6674   -5.3054    0.0617 C.3     1  LIG  -0.0311   0.1435 
8     C8       3.3002   -4.9738   -0.5724 C.3     1  LIG  -0.0677   0.3970 
9     C9       2.5354   -4.0184    0.3604 C.2     1  LIG   0.9297   0.9060 
10    O1       2.8633   -2.8009    0.2651 O.co2   1  LIG  -0.8072  -0.9000 
11    N1       5.9159   -4.5868    2.6437 N.pl3   1  LIG  -0.6428  -0.8382 
12    C10      5.0763   -3.4557    3.0606 C.3     1  LIG   0.1561   0.3691 
13    C11      5.0005   -3.3101    4.5768 C.3     1  LIG  -0.0004   0.2900 
14    Cl1      3.9779   -1.9202    5.0152 Cl      1  LIG  -0.1785  -0.2900 
15    C12      7.3419   -4.6334    2.9837 C.3     1  LIG   0.1653   0.3691 
16    C13      8.0853   -3.4224    2.4310 C.3     1  LIG   0.0348   0.2900 
17    Cl2      9.8332   -3.5767    2.7289 Cl      1  LIG  -0.1960  -0.2900 
18    H1       2.6612   -4.1409   -2.3790 H       1  LIG   0.4310   0.4500 
19    H2       4.0405   -3.4468   -1.7891 H       1  LIG   0.4852   0.4500 
20    H3       3.4882   -9.2849    2.2092 H       1  LIG   0.1343   0.1500 
21    H4       4.5930   -8.6418    4.3328 H       1  LIG   0.1351   0.1500 
22    H5       5.7228   -6.4702    4.5285 H       1  LIG   0.1340   0.1500 
23    H6       3.5282   -7.7647    0.2864 H       1  LIG   0.1203   0.1500 
24    H7       5.2022   -4.3710    0.2682 H       1  LIG   0.0922   0.0000 
25    H8       5.2897   -5.8383   -0.6711 H       1  LIG   0.0248   0.0000 
26    H9       2.7228   -5.8996   -0.7247 H       1  LIG   0.0922   0.0000 
27    H10      5.4727   -2.5352    2.6164 H       1  LIG   0.0632   0.0000 
28    H11      4.0634   -3.5657    2.6582 H       1  LIG   0.1162   0.0000 
29    H12      4.5664   -4.1973    5.0459 H       1  LIG   0.0780   0.0000 
30    H13      5.9870   -3.1374    5.0159 H       1  LIG   0.0508   0.0000 
31    H14      7.4740   -4.7017    4.0702 H       1  LIG   0.0312   0.0000 
32    H15      7.7916   -5.5373    2.5500 H       1  LIG   0.0661   0.0000 
33    H16      7.9364   -3.3254    1.3510 H       1  LIG   0.0730   0.0000 
34    H17      7.7577   -2.4949    2.9087 H       1  LIG   0.0721   0.0000 
35    O2       1.6612   -4.5672    1.0871 O.co2   1  LIG  -0.7029  -0.9000 
36    N2       3.5488   -4.3447   -1.9012 N.4     1  LIG  -0.8366  -0.8530 
37    H18      4.1080   -4.9453   -2.5198 H       1  LIG   0.4151   0.4500 
@<TRIPOS>BOND
1     1     6     ar
2     1     2     ar
3     1     20    1
4     2     3     ar
5     2     21    1
6     3     4     ar
7     3     22    1
8     4     5     ar
9     4     11    1
10    5     6     ar
11    5     7     1
12    6     23    1
13    7     8     1
14    7     24    1
15    7     25    1
16    8     9     1
17    8     26    1
18    8     36    1
19    9     10    2
20    9     35    1
21    11    12    1
22    11    15    1
23    12    13    1
24    12    27    1
25    12    28    1
26    13    14    1
27    13    29    1
28    13    30    1
29    15    16    1
30    15    31    1
31    15    32    1
32    16    17    1
33    16    33    1
34    16    34    1
35    18    36    1
36    19    36    1
37    36    37    1
@<TRIPOS>SUBSTRUCTURE
1   LIG    1    
 
########## Number      : 68
########## Name        : ZINC00000463
########## Description : AM1BCC_CHARGES =   0.0000 ORIGINAL_CHARGES =  -0.0000

@<TRIPOS>MOLECULE
ZINC00000463
26    28    1     0     0    
SMALL
USER_CHARGES
****
****
@<TRIPOS>ATOM
1     C1       4.8336   -9.2303   -1.2712 C.3     1  LIG  -0.1098   0.0000 
2     C2       4.1635   -8.2667   -0.3026 C.3     1  LIG   0.1167   0.2800 
3     C3       2.7916   -7.8208   -0.7957 C.3     1  LIG  -0.1145   0.0000 
4     C4       2.6941   -6.4877   -0.0966 C.3     1  LIG   0.2303   0.5801 
5     N1       4.0461   -6.0185   -0.1052 N.am    1  LIG  -0.2516  -0.3246 
6     O1       4.9586   -7.0836   -0.1717 O.3     1  LIG  -0.2365  -0.3155 
7     C5       4.4379   -4.7414    0.1045 C.2     1  LIG   0.6696   0.5438 
8     O2       5.5800   -4.3460    0.2914 O.2     1  LIG  -0.5426  -0.5700 
9     C6       3.2903   -3.8062    0.0276 C.ar    1  LIG  -0.1982   0.0862 
10    C7       3.4484   -2.4601    0.3632 C.ar    1  LIG  -0.0368  -0.1500 
11    C8       2.3648   -1.5929    0.2156 C.ar    1  LIG  -0.0198   0.1770 
12    C9       1.1398   -2.0550   -0.2727 C.ar    1  LIG  -0.0755  -0.1500 
13    C10      0.9879   -3.4002   -0.6132 C.ar    1  LIG  -0.1487  -0.1500 
14    C11      2.0563   -4.2806   -0.4498 C.ar    1  LIG   0.1435   0.0825 
15    O3       1.8500   -5.5909   -0.8216 O.3     1  LIG  -0.3309  -0.3625 
16    Cl1      2.5426    0.0703    0.6280 Cl      1  LIG  -0.0789  -0.1770 
17    H1       5.8193   -9.5226   -0.8936 H       1  LIG   0.0630   0.0000 
18    H2       4.2311  -10.1322   -1.4148 H       1  LIG   0.0458   0.0000 
19    H3       4.9994   -8.7571   -2.2453 H       1  LIG   0.0514   0.0000 
20    H4       4.0662   -8.7810    0.6665 H       1  LIG   0.0750   0.0000 
21    H5       2.7764   -7.6869   -1.8847 H       1  LIG   0.0884   0.0000 
22    H6       1.9863   -8.5128   -0.5330 H       1  LIG   0.0762   0.0000 
23    H7       2.2968   -6.6215    0.9225 H       1  LIG   0.0962   0.0000 
24    H8       4.4026   -2.0883    0.7273 H       1  LIG   0.1737   0.1500 
25    H9       0.2991   -1.3770   -0.3954 H       1  LIG   0.1549   0.1500 
26    H10      0.0355   -3.7548   -0.9978 H       1  LIG   0.1591   0.1500 
@<TRIPOS>BOND
1     1     2     1
2     1     17    1
3     1     18    1
4     1     19    1
5     2     6     1
6     2     3     1
7     2     20    1
8     3     4     1
9     3     21    1
10    3     22    1
11    4     15    1
12    4     5     1
13    4     23    1
14    5     6     1
15    5     7     am
16    7     8     2
17    7     9     1
18    9     14    ar
19    9     10    ar
20    10    11    ar
21    10    24    1
22    11    12    ar
23    11    16    1
24    12    13    ar
25    12    25    1
26    13    14    ar
27    13    26    1
28    14    15    1
@<TRIPOS>SUBSTRUCTURE
1   LIG    1    
 
########## Number      : 69
########## Name        : ZINC00000464
########## Description : AM1BCC_CHARGES =   0.0002 ORIGINAL_CHARGES =   0.0000

@<TRIPOS>MOLECULE
ZINC00000464
29    29    1     0     0    
SMALL
USER_CHARGES
****
****
@<TRIPOS>ATOM
1     C1       4.3286   -3.9128    1.6339 C.3     1  LIG  -0.1270   0.0000 
2     C2       4.6971   -5.1083    0.7418 C.3     1  LIG   0.1688   0.2800 
3     C3       6.0709   -5.6503    1.1776 C.3     1  LIG  -0.1227   0.0000 
4     C4       3.5983   -6.2498    0.6932 C.3     1  LIG   0.2149   0.4235 
5     C5       3.4293   -6.9082    2.0802 C.3     1  LIG  -0.1261   0.0000 
6     C6       2.2653   -5.6911    0.1576 C.ar    1  LIG  -0.1079  -0.1435 
7     C7       2.0541   -5.5888   -1.2319 C.ar    1  LIG  -0.0950  -0.1500 
8     C8       0.8600   -5.0835   -1.7527 C.ar    1  LIG  -0.1286  -0.1500 
9     C9      -0.1527   -4.6639   -0.8967 C.ar    1  LIG  -0.1187  -0.1500 
10    C10      0.0384   -4.7497    0.4791 C.ar    1  LIG   0.0088   0.1770 
11    C11      1.2318   -5.2553    1.0056 C.ar    1  LIG  -0.1180  -0.1500 
12    Cl1     -1.2075   -4.2226    1.5462 Cl      1  LIG  -0.1010  -0.1770 
13    O1       4.0568   -7.2842   -0.1867 O.3     1  LIG  -0.5860  -0.6800 
14    O2       4.8811   -4.5994   -0.5923 O.3     1  LIG  -0.5873  -0.6800 
15    H1       3.3271   -7.9144   -0.3150 H       1  LIG   0.4022   0.4000 
16    H2       5.5570   -3.9011   -0.5613 H       1  LIG   0.3985   0.4000 
17    H3       3.4319   -3.4002    1.2715 H       1  LIG   0.0581   0.0000 
18    H4       4.1760   -4.2021    2.6770 H       1  LIG   0.0419   0.0000 
19    H5       5.1241   -3.1577    1.6126 H       1  LIG   0.0392   0.0000 
20    H6       6.3957   -6.4753    0.5345 H       1  LIG   0.0695   0.0000 
21    H7       6.8418   -4.8757    1.0850 H       1  LIG   0.0328   0.0000 
22    H8       6.0684   -5.9935    2.2163 H       1  LIG   0.0424   0.0000 
23    H9       3.2058   -6.1969    2.8793 H       1  LIG   0.0474   0.0000 
24    H10      2.6225   -7.6518    2.0562 H       1  LIG   0.0442   0.0000 
25    H11      4.3285   -7.4665    2.3635 H       1  LIG   0.0552   0.0000 
26    H12      2.8288   -5.9000   -1.9299 H       1  LIG   0.1640   0.1500 
27    H13      0.7250   -5.0164   -2.8286 H       1  LIG   0.1386   0.1500 
28    H14     -1.0771   -4.2713   -1.3108 H       1  LIG   0.1461   0.1500 
29    H15      1.3477   -5.2938    2.0851 H       1  LIG   0.1459   0.1500 
@<TRIPOS>BOND
1     1     2     1
2     1     17    1
3     1     18    1
4     1     19    1
5     2     3     1
6     2     4     1
7     2     14    1
8     3     20    1
9     3     21    1
10    3     22    1
11    4     5     1
12    4     6     1
13    4     13    1
14    5     23    1
15    5     24    1
16    5     25    1
17    6     11    ar
18    6     7     ar
19    7     8     ar
20    7     26    1
21    8     9     ar
22    8     27    1
23    9     10    ar
24    9     28    1
25    10    11    ar
26    10    12    1
27    11    29    1
28    13    15    1
29    14    16    1
@<TRIPOS>SUBSTRUCTURE
1   LIG    1    
 
########## Number      : 70
########## Name        : ZINC00000466
########## Description : AM1BCC_CHARGES =  -0.0001 ORIGINAL_CHARGES =  -0.0000

@<TRIPOS>MOLECULE
ZINC00000466
37    37    1     0     0    
SMALL
USER_CHARGES
****
****
@<TRIPOS>ATOM
1     C1       5.2195   -8.0324    2.2292 C.ar    1  LIG  -0.1060  -0.1500 
2     C2       6.3654   -7.3149    2.5544 C.ar    1  LIG  -0.1061  -0.1500 
3     C3       6.4157   -5.9386    2.3241 C.ar    1  LIG  -0.0598  -0.1435 
4     C4       5.2962   -5.2961    1.7650 C.ar    1  LIG  -0.1692  -0.1500 
5     C5       4.1235   -5.9968    1.4203 C.ar    1  LIG   0.1192   0.1000 
6     C6       4.1163   -7.3808    1.6707 C.ar    1  LIG  -0.1310  -0.1500 
7     N1       3.0061   -5.3580    0.8613 N.pl3   1  LIG  -0.6442  -0.8382 
8     C7       2.4200   -5.9591   -0.3488 C.3     1  LIG   0.1789   0.3691 
9     C8       3.2307   -5.5958   -1.5899 C.3     1  LIG  -0.0059   0.2900 
10    Cl1      2.4962   -6.3117   -3.0438 Cl      1  LIG  -0.1830  -0.2900 
11    C9       2.8006   -3.9256    1.1349 C.3     1  LIG   0.1771   0.3691 
12    C10      1.3290   -3.5246    1.0922 C.3     1  LIG   0.0297   0.2900 
13    Cl2      1.1273   -1.8431    1.6455 Cl      1  LIG  -0.1923  -0.2900 
14    C11      7.6503   -5.1451    2.6838 C.3     1  LIG  -0.0318   0.1435 
15    C12      7.5054   -4.3675    4.0043 C.3     1  LIG  -0.0755   0.3970 
16    C13      7.4669   -5.3607    5.1816 C.2     1  LIG   0.9333   0.9060 
17    O1       8.5487   -5.9775    5.3986 O.co2   1  LIG  -0.8073  -0.9000 
18    H1       8.5911   -2.8757    4.9831 H       1  LIG   0.4365   0.4500 
19    H2       9.5473   -3.9717    4.1938 H       1  LIG   0.4811   0.4500 
20    H3       5.1773   -9.1014    2.4181 H       1  LIG   0.1396   0.1500 
21    H4       7.2127   -7.8347    2.9943 H       1  LIG   0.1513   0.1500 
22    H5       5.3650   -4.2261    1.5790 H       1  LIG   0.1207   0.1500 
23    H6       3.2315   -7.9774    1.4623 H       1  LIG   0.1405   0.1500 
24    H7       2.3415   -7.0484   -0.2608 H       1  LIG   0.0737   0.0000 
25    H8       1.3858   -5.6204   -0.4716 H       1  LIG   0.0639   0.0000 
26    H9       3.2684   -4.5127   -1.7395 H       1  LIG   0.0635   0.0000 
27    H10      4.2576   -5.9671   -1.5212 H       1  LIG   0.0732   0.0000 
28    H11      3.1703   -3.6895    2.1417 H       1  LIG   0.0760   0.0000 
29    H12      3.3779   -3.3237    0.4224 H       1  LIG   0.0236   0.0000 
30    H13      0.9251   -3.5715    0.0776 H       1  LIG   0.0658   0.0000 
31    H14      0.7227   -4.1652    1.7400 H       1  LIG   0.0854   0.0000 
32    H15      8.5193   -5.8159    2.7181 H       1  LIG   0.0751   0.0000 
33    H16      7.8540   -4.4481    1.8593 H       1  LIG   0.0243   0.0000 
34    H17      6.5764   -3.7735    3.9728 H       1  LIG   0.0962   0.0000 
35    O2       6.3670   -5.4110    5.7990 O.co2   1  LIG  -0.6973  -0.9000 
36    N2       8.6663   -3.4425    4.1281 N.4     1  LIG  -0.8316  -0.8530 
37    H18      8.7369   -2.7976    3.3310 H       1  LIG   0.4123   0.4500 
@<TRIPOS>BOND
1     1     6     ar
2     1     2     ar
3     1     20    1
4     2     3     ar
5     2     21    1
6     3     4     ar
7     3     14    1
8     4     5     ar
9     4     22    1
10    5     6     ar
11    5     7     1
12    6     23    1
13    7     8     1
14    7     11    1
15    8     9     1
16    8     24    1
17    8     25    1
18    9     10    1
19    9     26    1
20    9     27    1
21    11    12    1
22    11    28    1
23    11    29    1
24    12    13    1
25    12    30    1
26    12    31    1
27    14    15    1
28    14    32    1
29    14    33    1
30    15    16    1
31    15    34    1
32    15    36    1
33    16    17    2
34    16    35    1
35    18    36    1
36    19    36    1
37    36    37    1
@<TRIPOS>SUBSTRUCTURE
1   LIG    1    
 
########## Number      : 71
########## Name        : ZINC00000471
########## Description : AM1BCC_CHARGES =   0.0002 ORIGINAL_CHARGES =   0.0000

@<TRIPOS>MOLECULE
ZINC00000471
31    32    1     0     0    
SMALL
USER_CHARGES
****
****
@<TRIPOS>ATOM
1     C1       7.3918   -5.9513    0.4219 C.3     1  LIG  -0.0570   0.1435 
2     C2       6.0130   -6.2867   -0.0620 C.ar    1  LIG  -0.0410  -0.1435 
3     C3       5.7590   -7.5136   -0.6849 C.ar    1  LIG  -0.1600  -0.1500 
4     C4       4.4819   -7.8159   -1.1741 C.ar    1  LIG  -0.0389  -0.1435 
5     C5       3.4464   -6.8821   -1.0222 C.ar    1  LIG  -0.2051  -0.1500 
6     C6       3.6900   -5.6473   -0.4161 C.ar    1  LIG   0.1292   0.0825 
7     C7       4.9751   -5.3545    0.0538 C.ar    1  LIG  -0.1576  -0.1500 
8     O1       2.7693   -4.6524   -0.2236 O.3     1  LIG  -0.3427  -0.3625 
9     C8       1.4380   -4.8933   -0.6848 C.3     1  LIG   0.1138   0.2800 
10    C9       0.5548   -3.6740   -0.3861 C.3     1  LIG   0.1167   0.2800 
11    C10      0.5923   -3.2383    1.0688 C.3     1  LIG   0.0324   0.3001 
12    N1       1.4231   -2.0811    1.0165 N.am    1  LIG  -0.5190  -0.7301 
13    C11      1.6227   -1.6683   -0.2802 C.2     1  LIG   0.7982   0.7800 
14    O2       2.2246   -0.6670   -0.6395 O.2     1  LIG  -0.5788  -0.5700 
15    O3       1.0245   -2.5544   -1.1408 O.3     1  LIG  -0.4002  -0.4300 
16    C12      4.2100   -9.1505   -1.8032 C.3     1  LIG  -0.0567   0.1435 
17    H1       1.7580   -1.5687    1.8251 H       1  LIG   0.3168   0.3700 
18    H2       7.9238   -6.8531    0.7428 H       1  LIG   0.0451   0.0000 
19    H3       7.9623   -5.4698   -0.3782 H       1  LIG   0.0518   0.0000 
20    H4       7.3505   -5.2762    1.2831 H       1  LIG   0.0455   0.0000 
21    H5       6.5620   -8.2402   -0.7905 H       1  LIG   0.1347   0.1500 
22    H6       2.4589   -7.1433   -1.3914 H       1  LIG   0.1352   0.1500 
23    H7       5.1665   -4.3896    0.5195 H       1  LIG   0.1477   0.1500 
24    H8       1.4539   -5.0593   -1.7688 H       1  LIG   0.0717   0.0000 
25    H9       1.0203   -5.7682   -0.1721 H       1  LIG   0.0474   0.0000 
26    H10     -0.4804   -3.9339   -0.6551 H       1  LIG   0.0883   0.0000 
27    H11     -0.3948   -2.9191    1.4178 H       1  LIG   0.0720   0.0000 
28    H12      0.9977   -3.9802    1.7613 H       1  LIG   0.0715   0.0000 
29    H13      5.1077   -9.5434   -2.2921 H       1  LIG   0.0464   0.0000 
30    H14      3.8821   -9.8634   -1.0405 H       1  LIG   0.0485   0.0000 
31    H15      3.4330   -9.0695   -2.5706 H       1  LIG   0.0443   0.0000 
@<TRIPOS>BOND
1     1     2     1
2     1     18    1
3     1     19    1
4     1     20    1
5     2     7     ar
6     2     3     ar
7     3     4     ar
8     3     21    1
9     4     5     ar
10    4     16    1
11    5     6     ar
12    5     22    1
13    6     7     ar
14    6     8     1
15    7     23    1
16    8     9     1
17    9     10    1
18    9     24    1
19    9     25    1
20    10    15    1
21    10    11    1
22    10    26    1
23    11    12    1
24    11    27    1
25    11    28    1
26    12    13    am
27    12    17    1
28    13    14    2
29    13    15    1
30    16    29    1
31    16    30    1
32    16    31    1
@<TRIPOS>SUBSTRUCTURE
1   LIG    1    
 
########## Number      : 72
########## Name        : ZINC00000478
########## Description : AM1BCC_CHARGES =  -1.0000 ORIGINAL_CHARGES =  -1.0000

@<TRIPOS>MOLECULE
ZINC00000478
42    43    1     0     0    
SMALL
USER_CHARGES
****
****
@<TRIPOS>ATOM
1     C1       0.5868    5.6814    5.4543 C.3     1  LIG  -0.0891   0.0000 
2     C2       0.9043    6.9340    4.6411 C.3     1  LIG  -0.0772   0.0000 
3     C3       0.4487    8.2453    5.3518 C.3     1  LIG  -0.0158   0.1435 
4     C4       1.1964    8.4948    6.6594 C.ar    1  LIG  -0.0310  -0.1435 
5     C5       2.5803    8.3342    6.7948 C.ar    1  LIG  -0.0981  -0.1500 
6     C6       3.2147    8.5689    8.0180 C.ar    1  LIG  -0.1496  -0.1500 
7     C7       2.4813    8.9689    9.1439 C.ar    1  LIG  -0.0190   0.0000 
8     C8       3.1037    9.2097   10.3809 C.ar    1  LIG  -0.1514  -0.1500 
9     C9       2.3634    9.6085   11.4999 C.ar    1  LIG   0.0962   0.0825 
10    C10      0.9835    9.7686   11.3820 C.ar    1  LIG  -0.1976  -0.1500 
11    C11      0.3517    9.5322   10.1573 C.ar    1  LIG  -0.0836  -0.1500 
12    C12      1.0859    9.1323    9.0301 C.ar    1  LIG  -0.0563   0.0000 
13    C13      0.4630    8.8915    7.7926 C.ar    1  LIG  -0.1290  -0.1500 
14    O1       3.0996    9.8073   12.6376 O.3     1  LIG  -0.3378  -0.3625 
15    C14      2.3869   10.2145   13.7997 C.3     1  LIG   0.1197   0.2800 
16    C15      0.5693    9.4815    4.3855 C.3     1  LIG  -0.1750  -0.1060 
17    C16      0.0800   10.7872    5.0474 C.3     1  LIG  -0.0684   0.0000 
18    C17      1.9756    9.7272    3.8172 C.3     1  LIG  -0.0607   0.0000 
19    C18     -0.4694    9.2769    3.2282 C.2     1  LIG   0.9175   0.9060 
20    O2      -1.6698    9.1080    3.5940 O.co2   1  LIG  -0.8420  -0.9000 
21    H1       0.8668    4.7873    4.8879 H       1  LIG   0.0129   0.0000 
22    H2       1.1366    5.6614    6.3997 H       1  LIG   0.0173   0.0000 
23    H3      -0.4835    5.6183    5.6751 H       1  LIG   0.0340   0.0000 
24    H4       1.9760    6.9409    4.4183 H       1  LIG   0.0222   0.0000 
25    H5       0.3885    6.8355    3.6791 H       1  LIG   0.0877   0.0000 
26    H6      -0.6113    8.0531    5.6021 H       1  LIG   0.0810   0.0000 
27    H7       3.1920    8.0263    5.9515 H       1  LIG   0.1403   0.1500 
28    H8       4.2928    8.4351    8.0808 H       1  LIG   0.1204   0.1500 
29    H9       4.1814    9.0859   10.4776 H       1  LIG   0.1386   0.1500 
30    H10      0.3666   10.0761   12.2205 H       1  LIG   0.1250   0.1500 
31    H11     -0.7266    9.6648   10.0923 H       1  LIG   0.1310   0.1500 
32    H12     -0.6158    9.0181    7.7064 H       1  LIG   0.1399   0.1500 
33    H13      3.1110   10.3293   14.6121 H       1  LIG   0.0526   0.0000 
34    H14      1.9027   11.1846   13.6461 H       1  LIG   0.0278   0.0000 
35    H15      1.6620    9.4529   14.1053 H       1  LIG   0.0261   0.0000 
36    H16     -0.0503   11.5859    4.3066 H       1  LIG   0.0246   0.0000 
37    H17     -0.8827   10.6545    5.5544 H       1  LIG   0.0421   0.0000 
38    H18      0.7977   11.1539    5.7896 H       1  LIG  -0.0017   0.0000 
39    H19      1.9739   10.5621    3.1054 H       1  LIG   0.0339   0.0000 
40    H20      2.6917    9.9939    4.5996 H       1  LIG  -0.0108   0.0000 
41    H21      2.3630    8.8559    3.2802 H       1  LIG   0.0368   0.0000 
42    O3      -0.0038    9.2946    2.0531 O.co2   1  LIG  -0.8335  -0.9000 
@<TRIPOS>BOND
1     1     2     1
2     1     21    1
3     1     22    1
4     1     23    1
5     2     3     1
6     2     24    1
7     2     25    1
8     3     4     1
9     3     16    1
10    3     26    1
11    4     13    ar
12    4     5     ar
13    5     6     ar
14    5     27    1
15    6     7     ar
16    6     28    1
17    7     12    ar
18    7     8     ar
19    8     9     ar
20    8     29    1
21    9     10    ar
22    9     14    1
23    10    11    ar
24    10    30    1
25    11    12    ar
26    11    31    1
27    12    13    ar
28    13    32    1
29    14    15    1
30    15    33    1
31    15    34    1
32    15    35    1
33    16    17    1
34    16    18    1
35    16    19    1
36    17    36    1
37    17    37    1
38    17    38    1
39    18    39    1
40    18    40    1
41    18    41    1
42    19    20    2
43    19    42    1
@<TRIPOS>SUBSTRUCTURE
1   LIG    1    
 
########## Number      : 73
########## Name        : ZINC00000479
########## Description : AM1BCC_CHARGES =   0.0001 ORIGINAL_CHARGES =   0.0000

@<TRIPOS>MOLECULE
ZINC00000479
31    32    1     0     0    
SMALL
USER_CHARGES
****
****
@<TRIPOS>ATOM
1     C1       6.3359   -8.0450   -1.7794 C.3     1  LIG  -0.1113   0.0000 
2     C2       6.0656   -7.0025   -0.6981 C.3     1  LIG   0.3080   0.5801 
3     N1       5.3800   -7.5814    0.4184 N.am    1  LIG  -0.6090  -0.7301 
4     C3       4.0540   -7.2007    0.4569 C.2     1  LIG   0.6852   0.5690 
5     O1       3.2080   -7.5463    1.2646 O.2     1  LIG  -0.6021  -0.5700 
6     C4       3.8674   -6.2711   -0.7161 C.3     1  LIG   0.1025   0.4792 
7     O2       5.1691   -6.0127   -1.2297 O.3     1  LIG  -0.4196  -0.5600 
8     C5       3.2528   -4.9806   -0.2558 C.2     1  LIG  -0.1669  -0.2882 
9     C6       2.0263   -4.5733   -0.6200 C.2     1  LIG  -0.0785  -0.1784 
10    C7       1.3902   -3.3212   -0.1805 C.ar    1  LIG  -0.0622   0.0284 
11    C8       2.1208   -2.1594    0.1085 C.ar    1  LIG  -0.1131  -0.1500 
12    C9       1.4678   -0.9858    0.4951 C.ar    1  LIG  -0.1322  -0.1500 
13    C10      0.0784   -0.9556    0.5875 C.ar    1  LIG  -0.1228  -0.1500 
14    C11     -0.6606   -2.0973    0.2882 C.ar    1  LIG  -0.1320  -0.1500 
15    C12     -0.0095   -3.2712   -0.0988 C.ar    1  LIG  -0.1135  -0.1500 
16    C13      7.3476   -6.3044   -0.2640 C.3     1  LIG  -0.1126   0.0000 
17    H1       5.7948   -8.2305    1.0786 H       1  LIG   0.3431   0.3700 
18    H2       6.7953   -7.5836   -2.6607 H       1  LIG   0.0587   0.0000 
19    H3       6.9963   -8.8387   -1.4144 H       1  LIG   0.0448   0.0000 
20    H4       5.4041   -8.5114   -2.1204 H       1  LIG   0.0534   0.0000 
21    H5       3.2325   -6.7526   -1.4745 H       1  LIG   0.0868   0.0000 
22    H6       3.8568   -4.3758    0.4164 H       1  LIG   0.1408   0.1500 
23    H7       1.4255   -5.2046   -1.2708 H       1  LIG   0.1279   0.1500 
24    H8       3.2049   -2.1441    0.0291 H       1  LIG   0.1338   0.1500 
25    H9       2.0458   -0.0936    0.7191 H       1  LIG   0.1320   0.1500 
26    H10     -0.4276   -0.0425    0.8871 H       1  LIG   0.1319   0.1500 
27    H11     -1.7447   -2.0754    0.3538 H       1  LIG   0.1328   0.1500 
28    H12     -0.6095   -4.1491   -0.3293 H       1  LIG   0.1338   0.1500 
29    H13      7.1353   -5.5260    0.4783 H       1  LIG   0.0533   0.0000 
30    H14      8.0591   -7.0092    0.1791 H       1  LIG   0.0447   0.0000 
31    H15      7.8293   -5.8054   -1.1122 H       1  LIG   0.0624   0.0000 
@<TRIPOS>BOND
1     1     2     1
2     1     18    1
3     1     19    1
4     1     20    1
5     2     7     1
6     2     3     1
7     2     16    1
8     3     4     am
9     3     17    1
10    4     5     2
11    4     6     1
12    6     7     1
13    6     8     1
14    6     21    1
15    8     9     2
16    8     22    1
17    9     10    1
18    9     23    1
19    10    15    ar
20    10    11    ar
21    11    12    ar
22    11    24    1
23    12    13    ar
24    12    25    1
25    13    14    ar
26    13    26    1
27    14    15    ar
28    14    27    1
29    15    28    1
30    16    29    1
31    16    30    1
32    16    31    1
@<TRIPOS>SUBSTRUCTURE
1   LIG    1    
 
########## Number      : 74
########## Name        : ZINC00000484
########## Description : AM1BCC_CHARGES =  -0.0003 ORIGINAL_CHARGES =   0.0000

@<TRIPOS>MOLECULE
ZINC00000484
46    47    1     0     0    
SMALL
USER_CHARGES
****
****
@<TRIPOS>ATOM
1     C1      -0.3666   14.0345   11.0245 C.3     1  LIG   0.2174   0.3691 
2     N1       0.6029   12.9649   11.2248 N.pl3   1  LIG  -0.7065  -0.8382 
3     C2       1.4756   13.0414   12.3895 C.3     1  LIG   0.2182   0.3691 
4     C3       0.6938   11.9019   10.3286 C.ar    1  LIG   0.1763   0.1000 
5     C4      -0.1362   11.8026    9.1962 C.ar    1  LIG  -0.1819  -0.1500 
6     C5      -0.0515   10.7350    8.2869 C.ar    1  LIG  -0.1086  -0.1500 
7     C6       0.8773    9.7169    8.4781 C.ar    1  LIG   0.0106   0.1170 
8     C7       1.7119    9.7873    9.5948 C.ar    1  LIG  -0.1379  -0.1500 
9     C8       1.6200   10.8573   10.4967 C.ar    1  LIG  -0.1795  -0.1500 
10    N2       1.0350    8.6025    7.6209 N.am    1  LIG  -0.4609  -0.5470 
11    C9       0.3487    8.3473    6.4428 C.2     1  LIG   0.6768   0.5438 
12    O1      -0.4814    9.0608    5.8907 O.2     1  LIG  -0.5910  -0.5700 
13    C10      0.7081    7.0639    5.7838 C.ar    1  LIG  -0.0822   0.0862 
14    C11      0.9263    5.9005    6.5349 C.ar    1  LIG  -0.2107  -0.1500 
15    C12      1.2514    4.7046    5.8907 C.ar    1  LIG   0.1333   0.0825 
16    C13      1.3270    4.6877    4.4876 C.ar    1  LIG   0.0554   0.0825 
17    C14      1.1203    5.8500    3.7260 C.ar    1  LIG   0.1363   0.0825 
18    C15      0.7970    7.0377    4.3849 C.ar    1  LIG  -0.1809  -0.1500 
19    O2       1.2602    5.7144    2.3690 O.3     1  LIG  -0.3090  -0.3625 
20    C16      1.0475    6.8739    1.5733 C.3     1  LIG   0.1088   0.2800 
21    O3       1.6799    3.5195    3.8486 O.3     1  LIG  -0.3117  -0.3625 
22    C17      0.5108    2.7692    3.5159 C.3     1  LIG   0.1168   0.2800 
23    O4       1.5056    3.5138    6.5212 O.3     1  LIG  -0.3098  -0.3625 
24    C18      1.4513    3.5032    7.9423 C.3     1  LIG   0.1105   0.2800 
25    H1       1.7530    7.9417    7.9053 H       1  LIG   0.3173   0.3700 
26    H2      -0.1861   14.5523   10.0760 H       1  LIG   0.0272   0.0000 
27    H3      -1.3892   13.6416   11.0363 H       1  LIG   0.0351   0.0000 
28    H4      -0.3090   14.7913   11.8144 H       1  LIG   0.0427   0.0000 
29    H5       1.3257   12.1778   13.0468 H       1  LIG   0.0321   0.0000 
30    H6       2.5273   13.0905   12.0865 H       1  LIG   0.0248   0.0000 
31    H7       1.2771   13.9353   12.9908 H       1  LIG   0.0438   0.0000 
32    H8      -0.8848   12.5630    8.9848 H       1  LIG   0.1357   0.1500 
33    H9      -0.7373   10.7431    7.4472 H       1  LIG   0.1712   0.1500 
34    H10      2.4514    9.0123    9.7851 H       1  LIG   0.1240   0.1500 
35    H11      2.3037   10.8451   11.3423 H       1  LIG   0.1323   0.1500 
36    H12      0.8233    5.9390    7.6147 H       1  LIG   0.1446   0.1500 
37    H13      0.6236    7.9568    3.8328 H       1  LIG   0.1631   0.1500 
38    H14      1.1934    6.5911    0.5263 H       1  LIG   0.0705   0.0000 
39    H15      0.0216    7.2420    1.6780 H       1  LIG   0.0390   0.0000 
40    H16      1.7768    7.6552    1.8112 H       1  LIG   0.0386   0.0000 
41    H17      0.8340    1.8520    3.0146 H       1  LIG   0.0609   0.0000 
42    H18     -0.0492    2.4851    4.4134 H       1  LIG   0.0333   0.0000 
43    H19     -0.1350    3.3226    2.8256 H       1  LIG   0.0330   0.0000 
44    H20      1.6926    2.4899    8.2777 H       1  LIG   0.0717   0.0000 
45    H21      2.1959    4.1816    8.3718 H       1  LIG   0.0346   0.0000 
46    H22      0.4440    3.7404    8.2999 H       1  LIG   0.0344   0.0000 
@<TRIPOS>BOND
1     1     2     1
2     1     26    1
3     1     27    1
4     1     28    1
5     2     3     1
6     2     4     1
7     3     29    1
8     3     30    1
9     3     31    1
10    4     9     ar
11    4     5     ar
12    5     6     ar
13    5     32    1
14    6     7     ar
15    6     33    1
16    7     8     ar
17    7     10    1
18    8     9     ar
19    8     34    1
20    9     35    1
21    10    11    am
22    10    25    1
23    11    12    2
24    11    13    1
25    13    18    ar
26    13    14    ar
27    14    15    ar
28    14    36    1
29    15    16    ar
30    15    23    1
31    16    17    ar
32    16    21    1
33    17    18    ar
34    17    19    1
35    18    37    1
36    19    20    1
37    20    38    1
38    20    39    1
39    20    40    1
40    21    22    1
41    22    41    1
42    22    42    1
43    22    43    1
44    23    24    1
45    24    44    1
46    24    45    1
47    24    46    1
@<TRIPOS>SUBSTRUCTURE
1   LIG    1    
 
########## Number      : 75
########## Name        : ZINC00000485
########## Description : AM1BCC_CHARGES =   1.0004 ORIGINAL_CHARGES =   1.0000

@<TRIPOS>MOLECULE
ZINC00000485
49    51    1     0     0    
SMALL
USER_CHARGES
****
****
@<TRIPOS>ATOM
1     C1       7.5556   -7.2025   -0.1682 C.3     1  LIG   0.0831   0.5030 
2     C2       5.5032   -7.4696   -1.5252 C.3     1  LIG   0.1147   0.5030 
3     C3       4.0077   -7.2243   -1.5776 C.3     1  LIG  -0.0516   0.1435 
4     C4       3.3709   -8.0269   -0.4848 C.ar    1  LIG  -0.0809  -0.1435 
5     C5       2.1273   -8.6437   -0.6796 C.ar    1  LIG  -0.1752  -0.1500 
6     C6       1.5582   -9.4318    0.3259 C.ar    1  LIG   0.1478   0.0825 
7     C7       2.2420   -9.6015    1.5424 C.ar    1  LIG   0.1330   0.0825 
8     C8       3.4755   -8.9670    1.7359 C.ar    1  LIG  -0.1735  -0.1500 
9     C9       4.0462   -8.1639    0.7324 C.ar    1  LIG  -0.1407  -0.1435 
10    C10      5.3474   -7.4280    1.0187 C.3     1  LIG   0.2001   0.6465 
11    C11      5.0281   -6.2078    1.9314 C.3     1  LIG  -0.1121   0.0000 
12    C12      6.2564   -5.4666    2.4685 C.3     1  LIG  -0.0377   0.1435 
13    C13      5.8686   -4.4093    3.4731 C.ar    1  LIG  -0.1135  -0.1435 
14    C14      5.4979   -3.1264    3.0464 C.ar    1  LIG  -0.1162  -0.1500 
15    C15      5.1225   -2.1524    3.9733 C.ar    1  LIG  -0.1153  -0.1500 
16    C16      5.1122   -2.4599    5.3328 C.ar    1  LIG   0.0303   0.1770 
17    C17      5.4722   -3.7329    5.7721 C.ar    1  LIG  -0.1152  -0.1500 
18    C18      5.8473   -4.7051    4.8431 C.ar    1  LIG  -0.1096  -0.1500 
19    Cl1      4.6487   -1.2599    6.4772 Cl      1  LIG  -0.0577  -0.1770 
20    O1       1.6189  -10.3950    2.4743 O.3     1  LIG  -0.2847  -0.3625 
21    C19      2.2818  -10.5916    3.7170 C.3     1  LIG   0.1041   0.2800 
22    O2       0.3518  -10.0795    0.2206 O.3     1  LIG  -0.2846  -0.3625 
23    C20     -0.3736   -9.9197   -0.9922 C.3     1  LIG   0.1033   0.2800 
24    H1       7.9575   -6.7590    0.7437 H       1  LIG   0.1042   0.0000 
25    H2       7.6929   -8.2875   -0.1658 H       1  LIG   0.1052   0.0000 
26    H3       8.0333   -6.7508   -1.0417 H       1  LIG   0.0992   0.0000 
27    H4       6.0028   -6.9483   -2.3491 H       1  LIG   0.0953   0.0000 
28    H5       5.7578   -8.5361   -1.5692 H       1  LIG   0.1096   0.0000 
29    H6       3.7671   -6.1627   -1.4494 H       1  LIG   0.0776   0.0000 
30    H7       3.6299   -7.5418   -2.5562 H       1  LIG   0.1026   0.0000 
31    H8       1.6285   -8.5031   -1.6342 H       1  LIG   0.1580   0.1500 
32    H9       4.0134   -9.0708    2.6745 H       1  LIG   0.1492   0.1500 
33    H10      6.0345   -8.1014    1.5636 H       1  LIG   0.1009   0.0000 
34    H11      4.3802   -5.5029    1.3913 H       1  LIG   0.0766   0.0000 
35    H12      4.4349   -6.5505    2.7907 H       1  LIG   0.1062   0.0000 
36    H13      6.9499   -6.1755    2.9372 H       1  LIG   0.0556   0.0000 
37    H14      6.8085   -4.9835    1.6544 H       1  LIG   0.0291   0.0000 
38    H15      5.4989   -2.8779    1.9879 H       1  LIG   0.1273   0.1500 
39    H16      4.8404   -1.1630    3.6232 H       1  LIG   0.1592   0.1500 
40    H17      5.4638   -3.9808    6.8301 H       1  LIG   0.1605   0.1500 
41    H18      6.1219   -5.6963    5.1959 H       1  LIG   0.1364   0.1500 
42    H19      1.6549  -11.2470    4.3292 H       1  LIG   0.0927   0.0000 
43    H20      3.2459  -11.0911    3.5759 H       1  LIG   0.0363   0.0000 
44    H21      2.3985   -9.6456    4.2559 H       1  LIG   0.0366   0.0000 
45    H22     -1.3040  -10.4885   -0.9017 H       1  LIG   0.0921   0.0000 
46    H23     -0.6405   -8.8707   -1.1579 H       1  LIG   0.0413   0.0000 
47    H24      0.1836  -10.3277   -1.8419 H       1  LIG   0.0395   0.0000 
48    N1       6.0701   -6.9036   -0.2485 N.4     1  LIG  -0.6835  -0.9590 
49    H25      6.0066   -5.8710   -0.2890 H       1  LIG   0.4448   0.4500 
@<TRIPOS>BOND
1     1     24    1
2     1     25    1
3     1     26    1
4     1     48    1
5     2     3     1
6     2     27    1
7     2     28    1
8     2     48    1
9     3     4     1
10    3     29    1
11    3     30    1
12    4     9     ar
13    4     5     ar
14    5     6     ar
15    5     31    1
16    6     7     ar
17    6     22    1
18    7     8     ar
19    7     20    1
20    8     9     ar
21    8     32    1
22    9     10    1
23    10    11    1
24    10    33    1
25    10    48    1
26    11    12    1
27    11    34    1
28    11    35    1
29    12    13    1
30    12    36    1
31    12    37    1
32    13    18    ar
33    13    14    ar
34    14    15    ar
35    14    38    1
36    15    16    ar
37    15    39    1
38    16    17    ar
39    16    19    1
40    17    18    ar
41    17    40    1
42    18    41    1
43    20    21    1
44    21    42    1
45    21    43    1
46    21    44    1
47    22    23    1
48    23    45    1
49    23    46    1
50    23    47    1
51    48    49    1
@<TRIPOS>SUBSTRUCTURE
1   LIG    1    
 
########## Number      : 76
########## Name        : ZINC00000487
########## Description : AM1BCC_CHARGES =   0.9999 ORIGINAL_CHARGES =   1.0000

@<TRIPOS>MOLECULE
ZINC00000487
31    31    1     0     0    
SMALL
USER_CHARGES
****
****
@<TRIPOS>ATOM
1     C1      -0.6336   -5.3229    2.3914 C.3     1  LIG  -0.1314   0.0000 
2     C2       0.5184   -5.7316    1.4677 C.3     1  LIG   0.1309   0.5030 
3     C3      -0.0036   -5.9160    0.0314 C.3     1  LIG  -0.0461   0.1435 
4     C4       0.9832   -6.6221   -0.8774 C.ar    1  LIG  -0.1703  -0.1435 
5     C5       1.0196   -8.0268   -0.8689 C.ar    1  LIG  -0.0846  -0.1500 
6     C6       1.9125   -8.7209   -1.6823 C.ar    1  LIG  -0.1370  -0.1500 
7     C7       2.7819   -8.0198   -2.5109 C.ar    1  LIG  -0.0712  -0.1500 
8     C8       2.7642   -6.6237   -2.5272 C.ar    1  LIG  -0.1770  -0.1500 
9     C9       1.8711   -5.9156   -1.7138 C.ar    1  LIG   0.0969   0.0825 
10    O1       1.7985   -4.5468   -1.6477 O.3     1  LIG  -0.4024  -0.3625 
11    C10      2.6408   -3.8053   -2.5224 C.3     1  LIG   0.1165   0.2800 
12    C11      2.3988   -4.5721    2.6999 C.3     1  LIG   0.0793   0.5030 
13    H1      -1.4303   -6.0744    2.3682 H       1  LIG   0.0961   0.0000 
14    H2      -0.3026   -5.2353    3.4307 H       1  LIG   0.0631   0.0000 
15    H3      -1.0677   -4.3633    2.0898 H       1  LIG   0.0679   0.0000 
16    H4       0.9445   -6.6727    1.8526 H       1  LIG   0.1045   0.0000 
17    H5      -0.9239   -6.5163    0.0504 H       1  LIG   0.0988   0.0000 
18    H6      -0.3068   -4.9541   -0.4016 H       1  LIG   0.0853   0.0000 
19    H7       0.3462   -8.5899   -0.2266 H       1  LIG   0.1457   0.1500 
20    H8       1.9294   -9.8069   -1.6695 H       1  LIG   0.1593   0.1500 
21    H9       3.4792   -8.5597   -3.1458 H       1  LIG   0.1588   0.1500 
22    H10      3.4657   -6.1199   -3.1851 H       1  LIG   0.1564   0.1500 
23    H11      2.4325   -2.7429   -2.3635 H       1  LIG   0.0725   0.0000 
24    H12      3.6969   -3.9750   -2.2889 H       1  LIG   0.0434   0.0000 
25    H13      2.4225   -4.0338   -3.5708 H       1  LIG   0.0645   0.0000 
26    H14      3.1626   -3.8128    2.5172 H       1  LIG   0.1036   0.0000 
27    H15      1.7677   -4.2760    3.5397 H       1  LIG   0.1050   0.0000 
28    H16      2.8625   -5.5467    2.8686 H       1  LIG   0.1046   0.0000 
29    N1       1.5593   -4.6571    1.4734 N.4     1  LIG  -0.7579  -0.9060 
30    H17      2.1971   -4.8054    0.6794 H       1  LIG   0.4708   0.4500 
31    H18      1.1204   -3.7431    1.2941 H       1  LIG   0.4539   0.4500 
@<TRIPOS>BOND
1     1     2     1
2     1     13    1
3     1     14    1
4     1     15    1
5     2     3     1
6     2     16    1
7     2     29    1
8     3     4     1
9     3     17    1
10    3     18    1
11    4     9     ar
12    4     5     ar
13    5     6     ar
14    5     19    1
15    6     7     ar
16    6     20    1
17    7     8     ar
18    7     21    1
19    8     9     ar
20    8     22    1
21    9     10    1
22    10    11    1
23    11    23    1
24    11    24    1
25    11    25    1
26    12    26    1
27    12    27    1
28    12    28    1
29    12    29    1
30    29    30    1
31    29    31    1
@<TRIPOS>SUBSTRUCTURE
1   LIG    1    
 
########## Number      : 77
########## Name        : ZINC00000488
########## Description : AM1BCC_CHARGES =   0.9997 ORIGINAL_CHARGES =   1.0000

@<TRIPOS>MOLECULE
ZINC00000488
45    47    1     0     0    
SMALL
USER_CHARGES
****
****
@<TRIPOS>ATOM
1     C1       6.0314  -10.8082   -0.8693 C.3     1  LIG   0.0818   0.5030 
2     C2       4.6769  -10.9162    1.2055 C.3     1  LIG   0.0804   0.5030 
3     C3       6.1708   -8.9261    0.7613 C.3     1  LIG   0.1104   0.5030 
4     C4       5.3316   -7.8729    1.4796 C.3     1  LIG  -0.1603   0.0000 
5     C5       6.2211   -6.7233    1.9797 C.3     1  LIG   0.0515   0.3691 
6     N1       5.4368   -5.7031    2.7162 N.pl3   1  LIG  -0.1586  -0.5691 
7     C6       4.9045   -4.6185    1.9582 C.ar    1  LIG   0.0525   0.1000 
8     C7       4.8634   -4.6279    0.5437 C.ar    1  LIG  -0.1826  -0.1500 
9     C8       4.3310   -3.5710   -0.2032 C.ar    1  LIG  -0.1022  -0.1500 
10    C9       3.8159   -2.4600    0.4404 C.ar    1  LIG  -0.1291  -0.1500 
11    C10      3.8355   -2.4126    1.8283 C.ar    1  LIG  -0.0821  -0.1500 
12    C11      4.3688   -3.4758    2.5849 C.ar    1  LIG  -0.0132   0.1015 
13    S1       4.3481   -3.2456    4.3454 S.3     1  LIG  -0.1178  -0.2030 
14    C12      4.8039   -4.8514    4.9488 C.ar    1  LIG  -0.0555   0.1015 
15    C13      5.3021   -5.8773    4.1255 C.ar    1  LIG   0.0935   0.1000 
16    C14      5.6391   -7.0880    4.7784 C.ar    1  LIG  -0.2254  -0.1500 
17    C15      5.5003   -7.2798    6.1626 C.ar    1  LIG   0.1596   0.0825 
18    C16      5.0108   -6.2446    6.9431 C.ar    1  LIG  -0.2069  -0.1500 
19    C17      4.6664   -5.0397    6.3377 C.ar    1  LIG  -0.0427  -0.1500 
20    O1       5.8743   -8.5180    6.6137 O.3     1  LIG  -0.3395  -0.3625 
21    C18      5.7541   -8.7547    8.0117 C.3     1  LIG   0.1118   0.2800 
22    H1       6.3754  -10.1194   -1.6454 H       1  LIG   0.1055   0.0000 
23    H2       6.8739  -11.3107   -0.3866 H       1  LIG   0.1073   0.0000 
24    H3       5.3360  -11.5325   -1.3017 H       1  LIG   0.1061   0.0000 
25    H4       4.0214  -10.3233    1.8461 H       1  LIG   0.1114   0.0000 
26    H5       4.0831  -11.6725    0.6846 H       1  LIG   0.1039   0.0000 
27    H6       5.4804  -11.3814    1.7824 H       1  LIG   0.1072   0.0000 
28    H7       6.8913   -9.4097    1.4299 H       1  LIG   0.1069   0.0000 
29    H8       6.7097   -8.4644   -0.0736 H       1  LIG   0.1013   0.0000 
30    H9       4.5586   -7.4919    0.8029 H       1  LIG   0.0748   0.0000 
31    H10      4.7975   -8.3222    2.3221 H       1  LIG   0.0818   0.0000 
32    H11      7.0385   -7.1139    2.5995 H       1  LIG   0.0734   0.0000 
33    H12      6.7688   -6.2718    1.1425 H       1  LIG   0.0707   0.0000 
34    H13      5.2342   -5.4685   -0.0350 H       1  LIG   0.1099   0.1500 
35    H14      4.3205   -3.6258   -1.2882 H       1  LIG   0.1379   0.1500 
36    H15      3.4017   -1.6353   -0.1312 H       1  LIG   0.1503   0.1500 
37    H16      3.4293   -1.5300    2.3195 H       1  LIG   0.1557   0.1500 
38    H17      6.0143   -7.9413    4.2196 H       1  LIG   0.1281   0.1500 
39    H18      4.8836   -6.3356    8.0166 H       1  LIG   0.1545   0.1500 
40    H19      4.2864   -4.2386    6.9700 H       1  LIG   0.1565   0.1500 
41    H20      6.0918   -9.7770    8.2072 H       1  LIG   0.0719   0.0000 
42    H21      6.3964   -8.0769    8.5836 H       1  LIG   0.0465   0.0000 
43    H22      4.7108   -8.6810    8.3361 H       1  LIG   0.0413   0.0000 
44    N2       5.2897  -10.0090    0.1714 N.4     1  LIG  -0.6804  -0.9590 
45    H23      4.5147   -9.5441   -0.3210 H       1  LIG   0.4516   0.4500 
@<TRIPOS>BOND
1     1     22    1
2     1     23    1
3     1     24    1
4     1     44    1
5     2     25    1
6     2     26    1
7     2     27    1
8     2     44    1
9     3     4     1
10    3     28    1
11    3     29    1
12    3     44    1
13    4     5     1
14    4     30    1
15    4     31    1
16    5     6     1
17    5     32    1
18    5     33    1
19    6     15    1
20    6     7     1
21    7     12    ar
22    7     8     ar
23    8     9     ar
24    8     34    1
25    9     10    ar
26    9     35    1
27    10    11    ar
28    10    36    1
29    11    12    ar
30    11    37    1
31    12    13    1
32    13    14    1
33    14    19    ar
34    14    15    ar
35    15    16    ar
36    16    17    ar
37    16    38    1
38    17    18    ar
39    17    20    1
40    18    19    ar
41    18    39    1
42    19    40    1
43    20    21    1
44    21    41    1
45    21    42    1
46    21    43    1
47    44    45    1
@<TRIPOS>SUBSTRUCTURE
1   LIG    1    
 
########## Number      : 78
########## Name        : ZINC00000490
########## Description : AM1BCC_CHARGES =   0.0000 ORIGINAL_CHARGES =   0.0000

@<TRIPOS>MOLECULE
ZINC00000490
19    19    1     0     0    
SMALL
USER_CHARGES
****
****
@<TRIPOS>ATOM
1     C1       0.6526   -0.6156    5.2156 C.3     1  LIG   0.1279   0.2800 
2     O1       1.8058   -1.0758    5.9273 O.3     1  LIG  -0.4305  -0.4300 
3     C2       2.5385   -2.0280    5.2959 C.2     1  LIG   0.6582   0.6338 
4     O2       2.2980   -2.5093    4.1992 O.2     1  LIG  -0.5786  -0.5700 
5     C3       3.7092   -2.4313    6.1236 C.ar    1  LIG  -0.2313   0.0862 
6     C4       3.9410   -1.8467    7.3788 C.ar    1  LIG  -0.0345  -0.1500 
7     C5       5.0419   -2.2306    8.1496 C.ar    1  LIG  -0.1886  -0.1500 
8     C6       5.9233   -3.2001    7.6789 C.ar    1  LIG  -0.0592  -0.1500 
9     C7       5.7063   -3.7888    6.4356 C.ar    1  LIG  -0.1838  -0.1500 
10    C8       4.6068   -3.4076    5.6623 C.ar    1  LIG   0.2061   0.0825 
11    O3       4.4793   -4.0433    4.4559 O.3     1  LIG  -0.4995  -0.5325 
12    H1       3.6876   -3.7076    3.9996 H       1  LIG   0.4608   0.4500 
13    H2       0.1559    0.1420    5.8277 H       1  LIG   0.0640   0.0000 
14    H3       0.9497   -0.1597    4.2663 H       1  LIG   0.0485   0.0000 
15    H4      -0.0441   -1.4423    5.0471 H       1  LIG   0.0483   0.0000 
16    H5       3.2788   -1.0863    7.7850 H       1  LIG   0.1549   0.1500 
17    H6       5.2101   -1.7704    9.1195 H       1  LIG   0.1410   0.1500 
18    H7       6.7782   -3.4967    8.2797 H       1  LIG   0.1390   0.1500 
19    H8       6.3967   -4.5453    6.0717 H       1  LIG   0.1573   0.1500 
@<TRIPOS>BOND
1     1     2     1
2     1     13    1
3     1     14    1
4     1     15    1
5     2     3     1
6     3     4     2
7     3     5     1
8     5     10    ar
9     5     6     ar
10    6     7     ar
11    6     16    1
12    7     8     ar
13    7     17    1
14    8     9     ar
15    8     18    1
16    9     10    ar
17    9     19    1
18    10    11    1
19    11    12    1
@<TRIPOS>SUBSTRUCTURE
1   LIG    1    
 
########## Number      : 79
########## Name        : ZINC00000491
########## Description : AM1BCC_CHARGES =   1.0000 ORIGINAL_CHARGES =   1.0000

@<TRIPOS>MOLECULE
ZINC00000491
31    31    1     0     0    
SMALL
USER_CHARGES
****
****
@<TRIPOS>ATOM
1     C1      -0.5113   -4.5411   -0.0827 C.3     1  LIG  -0.1306   0.0000 
2     C2       1.0078   -4.5867    0.1501 C.3     1  LIG   0.1198   0.5030 
3     C3       1.7983   -5.3848   -0.9292 C.3     1  LIG   0.2009   0.4235 
4     C4       1.6994   -6.8903   -0.6945 C.ar    1  LIG  -0.1686  -0.1435 
5     C5       2.6277   -7.4963    0.1716 C.ar    1  LIG  -0.1144  -0.1500 
6     C6       2.5759   -8.8659    0.4378 C.ar    1  LIG  -0.1135  -0.1500 
7     C7       1.5927   -9.6531   -0.1539 C.ar    1  LIG  -0.0935  -0.1500 
8     C8       0.6614   -9.0701   -1.0090 C.ar    1  LIG  -0.1125  -0.1500 
9     C9       0.7117   -7.6990   -1.2767 C.ar    1  LIG  -0.1216  -0.1500 
10    O1       1.3364   -5.0540   -2.2359 O.3     1  LIG  -0.6164  -0.6800 
11    C10      2.7967   -3.0621    1.0614 C.3     1  LIG   0.0808   0.5030 
12    C11      1.6309   -2.3705   -1.0236 C.3     1  LIG   0.0859   0.5030 
13    H1       0.4041   -5.3046   -2.3311 H       1  LIG   0.4466   0.4000 
14    H2      -0.9331   -5.5504   -0.1097 H       1  LIG   0.1000   0.0000 
15    H3      -1.0069   -4.0076    0.7364 H       1  LIG   0.0598   0.0000 
16    H4      -0.7847   -4.0380   -1.0143 H       1  LIG   0.0788   0.0000 
17    H5       1.1366   -5.0925    1.1247 H       1  LIG   0.1048   0.0000 
18    H6       2.8726   -5.1500   -0.8698 H       1  LIG   0.0616   0.0000 
19    H7       3.4034   -6.9011    0.6486 H       1  LIG   0.1297   0.1500 
20    H8       3.3030   -9.3167    1.1073 H       1  LIG   0.1548   0.1500 
21    H9       1.5507  -10.7187    0.0520 H       1  LIG   0.1570   0.1500 
22    H10     -0.1090   -9.6829   -1.4692 H       1  LIG   0.1556   0.1500 
23    H11     -0.0384   -7.2844   -1.9434 H       1  LIG   0.1366   0.1500 
24    H12      3.0052   -2.0032    1.2374 H       1  LIG   0.1037   0.0000 
25    H13      2.6351   -3.5691    2.0162 H       1  LIG   0.1001   0.0000 
26    H14      3.6100   -3.5273    0.5004 H       1  LIG   0.1033   0.0000 
27    H15      1.8240   -1.3276   -0.7563 H       1  LIG   0.0921   0.0000 
28    H16      2.4583   -2.7649   -1.6180 H       1  LIG   0.1148   0.0000 
29    H17      0.6827   -2.4361   -1.5600 H       1  LIG   0.1166   0.0000 
30    N1       1.5243   -3.1568    0.2564 N.4     1  LIG  -0.6787  -0.9590 
31    H18      0.8254   -2.6563    0.8219 H       1  LIG   0.4465   0.4500 
@<TRIPOS>BOND
1     1     2     1
2     1     14    1
3     1     15    1
4     1     16    1
5     2     3     1
6     2     17    1
7     2     30    1
8     3     4     1
9     3     10    1
10    3     18    1
11    4     9     ar
12    4     5     ar
13    5     6     ar
14    5     19    1
15    6     7     ar
16    6     20    1
17    7     8     ar
18    7     21    1
19    8     9     ar
20    8     22    1
21    9     23    1
22    10    13    1
23    11    24    1
24    11    25    1
25    11    26    1
26    11    30    1
27    12    27    1
28    12    28    1
29    12    29    1
30    12    30    1
31    30    31    1
@<TRIPOS>SUBSTRUCTURE
1   LIG    1    
 
########## Number      : 80
########## Name        : ZINC00000546
########## Description : AM1BCC_CHARGES =   0.0000 ORIGINAL_CHARGES =   0.0000

@<TRIPOS>MOLECULE
ZINC00000546
27    28    1     0     0    
SMALL
USER_CHARGES
****
****
@<TRIPOS>ATOM
1     C1       4.8300   -0.4723    1.8351 C.3     1  LIG  -0.1069   0.0000 
2     C2       4.3289   -0.3476    0.3989 C.3     1  LIG  -0.0584   0.0000 
3     C3       4.6502   -1.5431   -0.5403 C.3     1  LIG   0.0672   0.5046 
4     C4       3.7153   -2.7027   -0.1309 C.2     1  LIG   0.6990   0.5690 
5     O1       3.7040   -3.3011    0.9341 O.2     1  LIG  -0.5787  -0.5700 
6     N1       2.8786   -2.9376   -1.1999 N.am    1  LIG  -0.6135  -0.4900 
7     C5       3.1386   -2.0939   -2.2561 C.2     1  LIG   0.7813   0.6900 
8     O2       2.5579   -2.0747   -3.3316 O.2     1  LIG  -0.6033  -0.5700 
9     N2       4.1915   -1.2626   -1.8775 N.am    1  LIG  -0.5145  -0.7301 
10    C6       6.1321   -1.9150   -0.5572 C.ar    1  LIG  -0.1142  -0.1435 
11    C7       7.0924   -0.9234   -0.8411 C.ar    1  LIG  -0.1197  -0.1500 
12    C8       8.4561   -1.2234   -0.8879 C.ar    1  LIG  -0.1294  -0.1500 
13    C9       8.8903   -2.5251   -0.6636 C.ar    1  LIG  -0.1158  -0.1500 
14    C10      7.9601   -3.5256   -0.4000 C.ar    1  LIG  -0.1266  -0.1500 
15    C11      6.5947   -3.2256   -0.3533 C.ar    1  LIG  -0.1063  -0.1500 
16    H1       2.1574   -3.6475   -1.2093 H       1  LIG   0.3581   0.3700 
17    H2       4.5844   -0.5539   -2.4882 H       1  LIG   0.3196   0.3700 
18    H3       4.5520    0.4238    2.4002 H       1  LIG   0.0406   0.0000 
19    H4       4.3892   -1.3304    2.3483 H       1  LIG   0.0630   0.0000 
20    H5       5.9188   -0.5625    1.8819 H       1  LIG   0.0441   0.0000 
21    H6       3.2416   -0.1912    0.4324 H       1  LIG   0.0590   0.0000 
22    H7       4.7399    0.5780   -0.0252 H       1  LIG   0.0547   0.0000 
23    H8       6.7858    0.1020   -1.0341 H       1  LIG   0.1365   0.1500 
24    H9       9.1765   -0.4395   -1.1036 H       1  LIG   0.1377   0.1500 
25    H10      9.9496   -2.7612   -0.7006 H       1  LIG   0.1373   0.1500 
26    H11      8.2945   -4.5460   -0.2337 H       1  LIG   0.1397   0.1500 
27    H12      5.9097   -4.0457   -0.1581 H       1  LIG   0.1495   0.1500 
@<TRIPOS>BOND
1     1     2     1
2     1     18    1
3     1     19    1
4     1     20    1
5     2     3     1
6     2     21    1
7     2     22    1
8     3     9     1
9     3     4     1
10    3     10    1
11    4     5     2
12    4     6     am
13    6     7     am
14    6     16    1
15    7     8     2
16    7     9     am
17    9     17    1
18    10    15    ar
19    10    11    ar
20    11    12    ar
21    11    23    1
22    12    13    ar
23    12    24    1
24    13    14    ar
25    13    25    1
26    14    15    ar
27    14    26    1
28    15    27    1
@<TRIPOS>SUBSTRUCTURE
1   LIG    1    
 
########## Number      : 81
########## Name        : ZINC00000549
########## Description : AM1BCC_CHARGES =   0.9999 ORIGINAL_CHARGES =   1.0000

@<TRIPOS>MOLECULE
ZINC00000549
37    39    1     0     0    
SMALL
USER_CHARGES
****
****
@<TRIPOS>ATOM
1     C1       4.4386   -8.7109    2.8708 C.3     1  LIG   0.0854   0.5030 
2     C2       4.4982   -6.6589    1.4783 C.3     1  LIG   0.1839   0.6465 
3     C3       4.4231   -6.0346    0.1060 C.ar    1  LIG  -0.2110  -0.1435 
4     C4       4.0294   -6.8180   -1.0053 C.ar    1  LIG  -0.0549  -0.1435 
5     C5       4.0416   -6.2347   -2.2847 C.ar    1  LIG  -0.1357  -0.1500 
6     C6       4.3732   -4.8949   -2.4567 C.ar    1  LIG  -0.0601  -0.1500 
7     C7       4.7044   -4.1158   -1.3532 C.ar    1  LIG  -0.1736  -0.1500 
8     C8       4.7163   -4.6613   -0.0620 C.ar    1  LIG   0.1765   0.1000 
9     N1       5.0947   -3.8485    1.0025 N.pl3   1  LIG  -0.8271  -0.9000 
10    C9       3.6884   -8.3010   -0.8580 C.3     1  LIG   0.0229   0.2870 
11    C10      3.3931   -8.6622    0.6018 C.3     1  LIG   0.1108   0.5030 
12    C11      2.4992   -8.7639   -1.7027 C.ar    1  LIG  -0.1245  -0.1435 
13    C12      1.2442   -8.1385   -1.6098 C.ar    1  LIG  -0.1167  -0.1500 
14    C13      0.1697   -8.5828   -2.3823 C.ar    1  LIG  -0.1202  -0.1500 
15    C14      0.3329   -9.6578   -3.2530 C.ar    1  LIG  -0.1004  -0.1500 
16    C15      1.5700  -10.2906   -3.3522 C.ar    1  LIG  -0.1191  -0.1500 
17    C16      2.6469   -9.8487   -2.5813 C.ar    1  LIG  -0.1160  -0.1500 
18    H1       5.2435   -2.8597    0.8431 H       1  LIG   0.4164   0.4000 
19    H2       4.9970   -4.1569    1.9594 H       1  LIG   0.3929   0.4000 
20    H3       4.5073   -9.8003    2.8109 H       1  LIG   0.1034   0.0000 
21    H4       5.2873   -8.3138    3.4338 H       1  LIG   0.1031   0.0000 
22    H5       3.4895   -8.4031    3.3179 H       1  LIG   0.1035   0.0000 
23    H6       3.6343   -6.3401    2.0740 H       1  LIG   0.0911   0.0000 
24    H7       5.4258   -6.3641    1.9811 H       1  LIG   0.1056   0.0000 
25    H8       3.7956   -6.8224   -3.1662 H       1  LIG   0.1613   0.1500 
26    H9       4.3748   -4.4581   -3.4513 H       1  LIG   0.1592   0.1500 
27    H10      4.9588   -3.0694   -1.5082 H       1  LIG   0.1561   0.1500 
28    H11      4.5763   -8.8469   -1.2277 H       1  LIG   0.0795   0.0000 
29    H12      3.3421   -9.7509    0.7244 H       1  LIG   0.1034   0.0000 
30    H13      2.4619   -8.2255    0.9851 H       1  LIG   0.1101   0.0000 
31    H14      1.0933   -7.2970   -0.9379 H       1  LIG   0.1327   0.1500 
32    H15     -0.7949   -8.0893   -2.3043 H       1  LIG   0.1494   0.1500 
33    H16     -0.5038  -10.0027   -3.8538 H       1  LIG   0.1526   0.1500 
34    H17      1.6970  -11.1299   -4.0303 H       1  LIG   0.1515   0.1500 
35    H18      3.6025  -10.3591   -2.6743 H       1  LIG   0.1357   0.1500 
36    N2       4.5145   -8.1649    1.4669 N.4     1  LIG  -0.6805  -0.9590 
37    H19      5.4106   -8.5247    1.0954 H       1  LIG   0.4527   0.4500 
@<TRIPOS>BOND
1     1     20    1
2     1     21    1
3     1     22    1
4     1     36    1
5     2     3     1
6     2     23    1
7     2     24    1
8     2     36    1
9     3     8     ar
10    3     4     ar
11    4     5     ar
12    4     10    1
13    5     6     ar
14    5     25    1
15    6     7     ar
16    6     26    1
17    7     8     ar
18    7     27    1
19    8     9     1
20    9     18    1
21    9     19    1
22    10    11    1
23    10    12    1
24    10    28    1
25    11    29    1
26    11    30    1
27    11    36    1
28    12    17    ar
29    12    13    ar
30    13    14    ar
31    13    31    1
32    14    15    ar
33    14    32    1
34    15    16    ar
35    15    33    1
36    16    17    ar
37    16    34    1
38    17    35    1
39    36    37    1
@<TRIPOS>SUBSTRUCTURE
1   LIG    1    
 
########## Number      : 82
########## Name        : ZINC00000562
########## Description : AM1BCC_CHARGES =   0.0002 ORIGINAL_CHARGES =   0.0000

@<TRIPOS>MOLECULE
ZINC00000562
38    39    1     0     0    
SMALL
USER_CHARGES
****
****
@<TRIPOS>ATOM
1     C1      -2.6622   -6.2271   -1.0560 C.3     1  LIG  -0.0480   0.1435 
2     C2      -1.9075   -5.1337   -1.7621 C.ar    1  LIG  -0.0750  -0.1435 
3     C3      -2.6348   -4.2033   -2.5273 C.ar    1  LIG  -0.1801  -0.1500 
4     C4      -1.9970   -3.1517   -3.1953 C.ar    1  LIG   0.1036   0.0825 
5     C5      -0.6038   -3.0168   -3.0974 C.ar    1  LIG   0.1009   0.0825 
6     C6       0.1240   -3.9367   -2.3344 C.ar    1  LIG  -0.1690  -0.1500 
7     C7      -0.5086   -5.0046   -1.6672 C.ar    1  LIG  -0.0769  -0.1435 
8     C8       0.3535   -5.9640   -0.8670 C.3     1  LIG   0.0447   0.2870 
9     C9       1.2670   -6.8153   -1.7124 C.ar    1  LIG  -0.4247  -0.1435 
10    C10      0.7471   -7.8648   -2.4546 C.ar    1  LIG   0.4970   0.1600 
11    N1       1.4718   -8.6643   -3.2610 N.ar    1  LIG  -0.7808  -0.6200 
12    C11      2.7867   -8.3983   -3.3408 C.ar    1  LIG   0.9221   0.7200 
13    N2       3.3895   -7.4003   -2.6614 N.ar    1  LIG  -0.8291  -0.6200 
14    C12      2.6394   -6.6255   -1.8404 C.ar    1  LIG   0.7039   0.4100 
15    N3       3.2953   -5.5885   -1.1859 N.pl3   1  LIG  -0.9337  -0.9000 
16    N4       3.5644   -9.1887   -4.1647 N.pl3   1  LIG  -0.9707  -0.9000 
17    O1      -0.0530   -1.9581   -3.7772 O.3     1  LIG  -0.3060  -0.3625 
18    C13      1.3613   -1.8150   -3.7309 C.3     1  LIG   0.1105   0.2800 
19    O2      -2.6389   -2.2087   -3.9601 O.3     1  LIG  -0.3044  -0.3625 
20    C14     -4.0508   -2.3195   -4.0887 C.3     1  LIG   0.1108   0.2800 
21    H1       4.2881   -5.5086   -1.3710 H       1  LIG   0.4141   0.4000 
22    H2       2.9842   -5.3090   -0.2656 H       1  LIG   0.4070   0.4000 
23    H3       3.1343   -9.9399   -4.6838 H       1  LIG   0.4490   0.4000 
24    H4       4.5541   -9.0052   -4.2409 H       1  LIG   0.4464   0.4000 
25    H5      -3.7352   -6.1831   -1.2717 H       1  LIG   0.0405   0.0000 
26    H6      -2.3089   -7.2102   -1.3799 H       1  LIG   0.0410   0.0000 
27    H7      -2.5430   -6.1304    0.0278 H       1  LIG   0.0434   0.0000 
28    H8      -3.7135   -4.3214   -2.5852 H       1  LIG   0.1377   0.1500 
29    H9       1.2021   -3.8429   -2.2395 H       1  LIG   0.1501   0.1500 
30    H10      0.9147   -5.3783   -0.1298 H       1  LIG   0.0412   0.0000 
31    H11     -0.2577   -6.6347   -0.2522 H       1  LIG   0.0506   0.0000 
32    H12     -0.3116   -8.1037   -2.4271 H       1  LIG   0.0245   0.1500 
33    H13      1.6281   -0.9438   -4.3370 H       1  LIG   0.0654   0.0000 
34    H14      1.7051   -1.6258   -2.7088 H       1  LIG   0.0295   0.0000 
35    H15      1.8619   -2.6870   -4.1647 H       1  LIG   0.0367   0.0000 
36    H16     -4.3924   -1.5007   -4.7293 H       1  LIG   0.0669   0.0000 
37    H17     -4.3309   -3.2599   -4.5746 H       1  LIG   0.0314   0.0000 
38    H18     -4.5454   -2.2098   -3.1180 H       1  LIG   0.0297   0.0000 
@<TRIPOS>BOND
1     1     2     1
2     1     25    1
3     1     26    1
4     1     27    1
5     2     7     ar
6     2     3     ar
7     3     4     ar
8     3     28    1
9     4     5     ar
10    4     19    1
11    5     6     ar
12    5     17    1
13    6     7     ar
14    6     29    1
15    7     8     1
16    8     9     1
17    8     30    1
18    8     31    1
19    9     14    ar
20    9     10    ar
21    10    11    ar
22    10    32    1
23    11    12    ar
24    12    13    ar
25    12    16    1
26    13    14    ar
27    14    15    1
28    15    21    1
29    15    22    1
30    16    23    1
31    16    24    1
32    17    18    1
33    18    33    1
34    18    34    1
35    18    35    1
36    19    20    1
37    20    36    1
38    20    37    1
39    20    38    1
@<TRIPOS>SUBSTRUCTURE
1   LIG    1    
 
########## Number      : 83
########## Name        : ZINC00000566
########## Description : AM1BCC_CHARGES =   0.0001 ORIGINAL_CHARGES =   0.0000

@<TRIPOS>MOLECULE
ZINC00000566
34    35    1     0     0    
SMALL
USER_CHARGES
****
****
@<TRIPOS>ATOM
1     C1       3.2719   -6.3093    4.7240 C.3     1  LIG  -0.0709   0.1382 
2     C2       3.8101   -7.0952    3.5617 C.2     1  LIG  -0.1031  -0.2764 
3     C3       4.6086   -6.6107    2.5910 C.2     1  LIG  -0.1813  -0.2882 
4     C4       5.1493   -5.2154    2.4390 C.3     1  LIG   0.0124   0.2817 
5     C5       4.6017   -4.5207    1.2079 C.ar    1  LIG  -0.1135  -0.1435 
6     C6       5.2545   -4.6111   -0.0392 C.ar    1  LIG   0.1689   0.0825 
7     C7       4.7057   -3.9693   -1.1587 C.ar    1  LIG  -0.2278  -0.1500 
8     C8       3.5116   -3.2485   -1.0569 C.ar    1  LIG  -0.0416  -0.1500 
9     C9       2.8470   -3.1619    0.1640 C.ar    1  LIG  -0.1890   0.0284 
10    C10      3.3968   -3.7977    1.2750 C.ar    1  LIG   0.1839   0.0825 
11    O1       2.7264   -3.7247    2.5196 O.3     1  LIG  -0.3251  -0.2325 
12    C11      1.5273   -3.0421    2.6832 C.2     1  LIG   0.7211   0.7056 
13    O2       0.9485   -2.9895    3.7624 O.2     1  LIG  -0.5691  -0.5700 
14    C12      0.9801   -2.3769    1.4888 C.2     1  LIG  -0.2625  -0.1356 
15    C13      1.5981   -2.4314    0.3065 C.2     1  LIG  -0.0012  -0.1784 
16    O3       6.4126   -5.3478   -0.0624 O.3     1  LIG  -0.3169  -0.3625 
17    C14      7.0871   -5.4725   -1.3082 C.3     1  LIG   0.1111   0.2800 
18    C15      3.3756   -8.5373    3.5388 C.3     1  LIG  -0.0598   0.1382 
19    H1       3.5816   -6.7738    5.6662 H       1  LIG   0.0409   0.0000 
20    H2       3.6107   -5.2723    4.7493 H       1  LIG   0.0682   0.0000 
21    H3       2.1773   -6.2946    4.6915 H       1  LIG   0.0379   0.0000 
22    H4       4.9294   -7.2975    1.8076 H       1  LIG   0.1212   0.1500 
23    H5       4.9679   -4.5920    3.3195 H       1  LIG   0.0697   0.0000 
24    H6       6.2436   -5.2731    2.3818 H       1  LIG   0.0645   0.0000 
25    H7       5.1820   -4.0122   -2.1336 H       1  LIG   0.1441   0.1500 
26    H8       3.1109   -2.7641   -1.9443 H       1  LIG   0.1390   0.1500 
27    H9       0.0476   -1.8364    1.6059 H       1  LIG   0.1690   0.1500 
28    H10      1.1774   -1.9347   -0.5611 H       1  LIG   0.1456   0.1500 
29    H11      7.9751   -6.0909   -1.1458 H       1  LIG   0.0723   0.0000 
30    H12      6.4598   -5.9805   -2.0481 H       1  LIG   0.0370   0.0000 
31    H13      7.4243   -4.4971   -1.6739 H       1  LIG   0.0369   0.0000 
32    H14      3.7788   -9.0820    2.6786 H       1  LIG   0.0349   0.0000 
33    H15      3.7155   -9.0498    4.4448 H       1  LIG   0.0408   0.0000 
34    H16      2.2837   -8.6030    3.4904 H       1  LIG   0.0425   0.0000 
@<TRIPOS>BOND
1     1     2     1
2     1     19    1
3     1     20    1
4     1     21    1
5     2     3     2
6     2     18    1
7     3     4     1
8     3     22    1
9     4     5     1
10    4     23    1
11    4     24    1
12    5     10    ar
13    5     6     ar
14    6     7     ar
15    6     16    1
16    7     8     ar
17    7     25    1
18    8     9     ar
19    8     26    1
20    9     15    1
21    9     10    ar
22    10    11    1
23    11    12    1
24    12    13    2
25    12    14    1
26    14    15    2
27    14    27    1
28    15    28    1
29    16    17    1
30    17    29    1
31    17    30    1
32    17    31    1
33    18    32    1
34    18    33    1
35    18    34    1
@<TRIPOS>SUBSTRUCTURE
1   LIG    1    
 
########## Number      : 84
########## Name        : ZINC00000568
########## Description : AM1BCC_CHARGES =   1.0000 ORIGINAL_CHARGES =   1.0000

@<TRIPOS>MOLECULE
ZINC00000568
38    39    1     0     0    
SMALL
USER_CHARGES
****
****
@<TRIPOS>ATOM
1     C1       7.0400   -8.9421    1.0642 C.3     1  LIG  -0.1331   0.0000 
2     C2       6.0782   -8.7659   -0.1138 C.3     1  LIG   0.1379   0.5030 
3     C3       5.6757  -10.1498   -0.6298 C.3     1  LIG  -0.1333   0.0000 
4     C4       3.8147   -7.8497   -0.8008 C.3     1  LIG   0.0682   0.5030 
5     C5       2.6396   -7.0086   -0.3256 C.3     1  LIG   0.1010   0.2800 
6     O1       3.0819   -5.7221    0.0989 O.3     1  LIG  -0.3730  -0.5600 
7     C6       3.9514   -5.8262    1.2248 C.3     1  LIG   0.1829   0.4235 
8     C7       5.2163   -6.5915    0.8215 C.3     1  LIG   0.0693   0.5030 
9     C8       4.3046   -4.4289    1.7018 C.ar    1  LIG  -0.1343  -0.1435 
10    C9       4.6795   -3.4244    0.7978 C.ar    1  LIG  -0.0681  -0.1500 
11    C10      5.0233   -2.1520    1.2537 C.ar    1  LIG  -0.1262  -0.1500 
12    C11      4.9978   -1.8663    2.6180 C.ar    1  LIG  -0.0479  -0.1500 
13    C12      4.6218   -2.8495    3.5393 C.ar    1  LIG  -0.1632  -0.1435 
14    C13      4.2882   -4.1298    3.0737 C.ar    1  LIG  -0.0646  -0.1500 
15    C14      4.6188   -2.5539    5.0121 C.3     1  LIG   0.6883   1.1635 
16    F1       3.6607   -3.2419    5.6937 F       1  LIG  -0.2307  -0.3400 
17    F2       5.8019   -2.8744    5.6045 F       1  LIG  -0.2286  -0.3400 
18    F3       4.3999   -1.2405    5.2989 F       1  LIG  -0.2198  -0.3400 
19    H1       7.8508   -9.6315    0.8032 H       1  LIG   0.0992   0.0000 
20    H2       7.5195   -7.9988    1.3418 H       1  LIG   0.0672   0.0000 
21    H3       6.5273   -9.3441    1.9447 H       1  LIG   0.0663   0.0000 
22    H4       6.5567   -8.1892   -0.9140 H       1  LIG   0.1051   0.0000 
23    H5       6.5615  -10.7700   -0.8076 H       1  LIG   0.0997   0.0000 
24    H6       5.0356  -10.6757    0.0868 H       1  LIG   0.0657   0.0000 
25    H7       5.1494  -10.0876   -1.5870 H       1  LIG   0.0653   0.0000 
26    H8       4.3350   -7.3790   -1.6416 H       1  LIG   0.1131   0.0000 
27    H9       3.4644   -8.8493   -1.0674 H       1  LIG   0.1102   0.0000 
28    H10      1.9354   -6.8616   -1.1506 H       1  LIG   0.1286   0.0000 
29    H11      2.0941   -7.5002    0.4888 H       1  LIG   0.0659   0.0000 
30    H12      3.4380   -6.3417    2.0540 H       1  LIG   0.0698   0.0000 
31    H13      5.8709   -6.7018    1.6900 H       1  LIG   0.1137   0.0000 
32    H14      5.7557   -6.1045    0.0007 H       1  LIG   0.1162   0.0000 
33    H15      4.7086   -3.6263   -0.2704 H       1  LIG   0.1490   0.1500 
34    H16      5.3141   -1.3823    0.5441 H       1  LIG   0.1620   0.1500 
35    H17      5.2746   -0.8706    2.9563 H       1  LIG   0.1722   0.1500 
36    H18      4.0129   -4.9013    3.7908 H       1  LIG   0.1524   0.1500 
37    N1       4.8320   -7.9823    0.3363 N.4     1  LIG  -0.6863  -0.9590 
38    H19      4.3388   -8.5003    1.0852 H       1  LIG   0.4399   0.4500 
@<TRIPOS>BOND
1     1     2     1
2     1     19    1
3     1     20    1
4     1     21    1
5     2     3     1
6     2     22    1
7     2     37    1
8     3     23    1
9     3     24    1
10    3     25    1
11    4     5     1
12    4     26    1
13    4     27    1
14    4     37    1
15    5     6     1
16    5     28    1
17    5     29    1
18    6     7     1
19    7     8     1
20    7     9     1
21    7     30    1
22    8     31    1
23    8     32    1
24    8     37    1
25    9     14    ar
26    9     10    ar
27    10    11    ar
28    10    33    1
29    11    12    ar
30    11    34    1
31    12    13    ar
32    12    35    1
33    13    14    ar
34    13    15    1
35    14    36    1
36    15    16    1
37    15    17    1
38    15    18    1
39    37    38    1
@<TRIPOS>SUBSTRUCTURE
1   LIG    1    
 
########## Number      : 85
########## Name        : ZINC00000570
########## Description : AM1BCC_CHARGES =   1.0001 ORIGINAL_CHARGES =   1.0000

@<TRIPOS>MOLECULE
ZINC00000570
42    43    1     0     0    
SMALL
USER_CHARGES
****
****
@<TRIPOS>ATOM
1     C1       6.1883  -10.4525   -1.1441 C.3     1  LIG  -0.1393   0.0000 
2     C2       5.3388   -9.7962   -0.0609 C.3     1  LIG   0.1344   0.5030 
3     C3       5.1277  -10.7406    1.1158 C.3     1  LIG  -0.1330   0.0000 
4     C4       5.2323   -7.5771    1.1795 C.3     1  LIG   0.0860   0.5030 
5     C5       6.0777   -6.3733    1.6234 C.3     1  LIG   0.1909   0.3691 
6     C6       6.5563   -5.5294    0.4263 C.3     1  LIG  -0.0902   0.0000 
7     C7       7.3397   -4.3102    0.9125 C.3     1  LIG  -0.0371   0.1435 
8     C8       6.5764   -3.5560    1.9708 C.ar    1  LIG  -0.0907  -0.1435 
9     C9       6.8855   -2.2061    2.2183 C.ar    1  LIG  -0.0848  -0.1500 
10    C10      6.2016   -1.4676    3.1936 C.ar    1  LIG  -0.0667  -0.1435 
11    C11      5.2163   -2.1401    3.9276 C.ar    1  LIG  -0.1288   0.1330 
12    C12      4.8996   -3.4856    3.7041 C.ar    1  LIG  -0.1107  -0.1500 
13    C13      5.5931   -4.2145    2.7318 C.ar    1  LIG   0.1128   0.1000 
14    N1       5.2655   -5.5451    2.5001 N.pl3   1  LIG  -0.7159  -0.8691 
15    N2       4.4834   -1.4581    4.9722 N.pl3   1  LIG   0.3105   0.9070 
16    O1       5.1370   -1.0319    5.9333 O.2     1  LIG  -0.2029  -0.5200 
17    O2       3.2580   -1.3625    4.8290 O.3     1  LIG  -0.1812  -0.5200 
18    C14      6.5693   -0.0245    3.4060 C.3     1  LIG   0.1732   0.4235 
19    O3       7.5337    0.0964    4.4413 O.3     1  LIG  -0.5852  -0.6800 
20    H1       4.6321   -5.9937    3.1534 H       1  LIG   0.4068   0.4000 
21    H2       7.1503   -0.2861    5.2501 H       1  LIG   0.4273   0.4000 
22    H3       5.7003  -11.3572   -1.5218 H       1  LIG   0.1053   0.0000 
23    H4       6.3340   -9.7755   -1.9929 H       1  LIG   0.0668   0.0000 
24    H5       7.1762  -10.7350   -0.7636 H       1  LIG   0.0707   0.0000 
25    H6       4.3812   -9.4759   -0.4857 H       1  LIG   0.1112   0.0000 
26    H7       4.6646  -11.6744    0.7790 H       1  LIG   0.1038   0.0000 
27    H8       6.0754  -10.9934    1.6038 H       1  LIG   0.0689   0.0000 
28    H9       4.4644  -10.3048    1.8688 H       1  LIG   0.0667   0.0000 
29    H10      4.8399   -8.1070    2.0529 H       1  LIG   0.1075   0.0000 
30    H11      4.3963   -7.2729    0.5399 H       1  LIG   0.1219   0.0000 
31    H12      6.9780   -6.7341    2.1481 H       1  LIG   0.0387   0.0000 
32    H13      7.1972   -6.1144   -0.2417 H       1  LIG   0.0311   0.0000 
33    H14      5.6915   -5.1966   -0.1637 H       1  LIG   0.0776   0.0000 
34    H15      8.3011   -4.6274    1.3344 H       1  LIG   0.0681   0.0000 
35    H16      7.5466   -3.6573    0.0564 H       1  LIG   0.0829   0.0000 
36    H17      7.6681   -1.7263    1.6324 H       1  LIG   0.1621   0.1500 
37    H18      4.1254   -3.9734    4.2933 H       1  LIG   0.1753   0.1500 
38    H19      6.9962    0.4047    2.4930 H       1  LIG   0.0781   0.0000 
39    H20      5.6937    0.5849    3.6534 H       1  LIG   0.0584   0.0000 
40    N3       6.0598   -8.5556    0.3998 N.4     1  LIG  -0.7674  -0.9060 
41    H21      6.4247   -8.0767   -0.4341 H       1  LIG   0.4507   0.4500 
42    H22      6.8881   -8.8266    0.9486 H       1  LIG   0.4463   0.4500 
@<TRIPOS>BOND
1     1     2     1
2     1     22    1
3     1     23    1
4     1     24    1
5     2     3     1
6     2     25    1
7     2     40    1
8     3     26    1
9     3     27    1
10    3     28    1
11    4     5     1
12    4     29    1
13    4     30    1
14    4     40    1
15    5     14    1
16    5     6     1
17    5     31    1
18    6     7     1
19    6     32    1
20    6     33    1
21    7     8     1
22    7     34    1
23    7     35    1
24    8     13    ar
25    8     9     ar
26    9     10    ar
27    9     36    1
28    10    11    ar
29    10    18    1
30    11    12    ar
31    11    15    1
32    12    13    ar
33    12    37    1
34    13    14    1
35    14    20    1
36    15    16    2
37    15    17    1
38    18    19    1
39    18    38    1
40    18    39    1
41    19    21    1
42    40    41    1
43    40    42    1
@<TRIPOS>SUBSTRUCTURE
1   LIG    1    
 
########## Number      : 86
########## Name        : ZINC00000575
########## Description : AM1BCC_CHARGES =  -0.0001 ORIGINAL_CHARGES =  -0.0000

@<TRIPOS>MOLECULE
ZINC00000575
31    33    1     0     0    
SMALL
USER_CHARGES
****
****
@<TRIPOS>ATOM
1     C1       4.6991   -8.8350    1.9366 C.ar    1  LIG  -0.1118  -0.1500 
2     C2       5.0732   -8.2602    0.7220 C.ar    1  LIG  -0.1390  -0.1500 
3     C3       5.3956   -6.9043    0.6592 C.ar    1  LIG  -0.0848  -0.1500 
4     C4       5.3519   -6.1243    1.8204 C.ar    1  LIG  -0.1508   0.0862 
5     C5       4.9632   -6.6977    3.0368 C.ar    1  LIG  -0.1043  -0.1500 
6     C6       4.6417   -8.0545    3.0912 C.ar    1  LIG  -0.1369  -0.1500 
7     C7       5.6843   -4.6714    1.7354 C.2     1  LIG   0.5552   0.2776 
8     N1       5.1930   -4.0264    0.7333 N.2     1  LIG  -0.6116  -0.6960 
9     C8       5.4772   -2.6114    0.5806 C.3     1  LIG   0.2711   0.5870 
10    C9       4.6887   -1.8785    1.6645 C.2     1  LIG   0.6560   0.5690 
11    O1       3.7177   -1.1670    1.3994 O.2     1  LIG  -0.6004  -0.5700 
12    N2       5.1734   -1.9787    2.9512 N.am    1  LIG  -0.4722  -0.5470 
13    C10      6.1864   -2.8408    3.4147 C.ar    1  LIG   0.0848   0.1170 
14    C11      6.5219   -4.0650    2.8137 C.ar    1  LIG  -0.2145   0.0862 
15    C12      7.6066   -4.8091    3.3071 C.ar    1  LIG  -0.0694  -0.1500 
16    C13      8.3085   -4.3634    4.4265 C.ar    1  LIG  -0.0120   0.1770 
17    C14      7.9361   -3.1873    5.0694 C.ar    1  LIG  -0.0825  -0.1500 
18    C15      6.8742   -2.4340    4.5677 C.ar    1  LIG  -0.1687  -0.1500 
19    Cl1      9.6275   -5.2889    5.0331 Cl      1  LIG  -0.0782  -0.1770 
20    O2       5.0673   -2.1177   -0.6835 O.3     1  LIG  -0.5595  -0.6800 
21    H1       4.7988   -1.3081    3.6164 H       1  LIG   0.3310   0.3700 
22    H2       4.1709   -2.4644   -0.8316 H       1  LIG   0.4289   0.4000 
23    H3       4.4472   -9.8908    1.9823 H       1  LIG   0.1352   0.1500 
24    H4       5.1124   -8.8692   -0.1768 H       1  LIG   0.1376   0.1500 
25    H5       5.6868   -6.4722   -0.2946 H       1  LIG   0.1515   0.1500 
26    H6       4.8932   -6.1042    3.9441 H       1  LIG   0.1399   0.1500 
27    H7       4.3410   -8.5031    4.0340 H       1  LIG   0.1366   0.1500 
28    H8       6.5473   -2.3862    0.7094 H       1  LIG   0.1025   0.0000 
29    H9       7.8962   -5.7447    2.8335 H       1  LIG   0.1647   0.1500 
30    H10      8.4675   -2.8400    5.9515 H       1  LIG   0.1550   0.1500 
31    H11      6.6118   -1.5047    5.0694 H       1  LIG   0.1465   0.1500 
@<TRIPOS>BOND
1     1     6     ar
2     1     2     ar
3     1     23    1
4     2     3     ar
5     2     24    1
6     3     4     ar
7     3     25    1
8     4     5     ar
9     4     7     1
10    5     6     ar
11    5     26    1
12    6     27    1
13    7     14    1
14    7     8     2
15    8     9     1
16    9     10    1
17    9     20    1
18    9     28    1
19    10    11    2
20    10    12    am
21    12    13    1
22    12    21    1
23    13    18    ar
24    13    14    ar
25    14    15    ar
26    15    16    ar
27    15    29    1
28    16    17    ar
29    16    19    1
30    17    18    ar
31    17    30    1
32    18    31    1
33    20    22    1
@<TRIPOS>SUBSTRUCTURE
1   LIG    1    
 
########## Number      : 87
########## Name        : ZINC00000579
########## Description : AM1BCC_CHARGES =  -0.0000 ORIGINAL_CHARGES =   0.0000

@<TRIPOS>MOLECULE
ZINC00000579
21    21    1     0     0    
SMALL
USER_CHARGES
****
****
@<TRIPOS>ATOM
1     C1       5.4042  -10.8292   -0.8476 C.3     1  LIG  -0.1416   0.1935 
2     S1       4.3261  -10.0452    0.3767 S.o     1  LIG   0.3214   0.1130 
3     O1       5.2019   -9.5219    1.4764 O.2     1  LIG  -0.4973  -0.5000 
4     C2       3.8570   -8.6327   -0.6757 C.3     1  LIG  -0.2096   0.2545 
5     C3       2.8445   -7.7293   -0.0035 C.2     1  LIG   0.5108   0.4228 
6     O2       2.2524   -8.0355    1.0288 O.2     1  LIG  -0.4988  -0.5700 
7     C4       2.5358   -6.4185   -0.6400 C.ar    1  LIG   0.3373   0.3962 
8     C5       3.0359   -6.0558   -1.8851 C.ar    1  LIG  -0.2167  -0.1500 
9     C6       2.6838   -4.8077   -2.3938 C.ar    1  LIG  -0.0998  -0.1500 
10    C7       1.8542   -3.9688   -1.6597 C.ar    1  LIG  -0.2247  -0.1500 
11    C8       1.4030   -4.4185   -0.4315 C.ar    1  LIG   0.3920   0.1600 
12    N1       1.7218   -5.6214    0.0950 N.ar    1  LIG  -0.6158  -0.6200 
13    H1       5.8520  -11.7185   -0.3978 H       1  LIG   0.0921   0.0000 
14    H2       4.8139  -11.1233   -1.7184 H       1  LIG   0.0767   0.0000 
15    H3       6.1947  -10.1365   -1.1461 H       1  LIG   0.0872   0.0000 
16    H4       4.7722   -8.0741   -0.8918 H       1  LIG   0.1186   0.0000 
17    H5       3.4187   -9.0315   -1.5952 H       1  LIG   0.1022   0.0000 
18    H6       3.6780   -6.7018   -2.4722 H       1  LIG   0.1429   0.1500 
19    H7       3.0561   -4.4911   -3.3640 H       1  LIG   0.1436   0.1500 
20    H8       1.5686   -2.9939   -2.0380 H       1  LIG   0.1487   0.1500 
21    H9       0.7518   -3.8041    0.1819 H       1  LIG   0.0308   0.1500 
@<TRIPOS>BOND
1     1     2     1
2     1     13    1
3     1     14    1
4     1     15    1
5     2     3     2
6     2     4     1
7     4     5     1
8     4     16    1
9     4     17    1
10    5     6     2
11    5     7     1
12    7     12    ar
13    7     8     ar
14    8     9     ar
15    8     18    1
16    9     10    ar
17    9     19    1
18    10    11    ar
19    10    20    1
20    11    12    ar
21    11    21    1
@<TRIPOS>SUBSTRUCTURE
1   LIG    1    
 
########## Number      : 88
########## Name        : ZINC00000583
########## Description : AM1BCC_CHARGES =   0.9999 ORIGINAL_CHARGES =   1.0000

@<TRIPOS>MOLECULE
ZINC00000583
44    48    1     0     0    
SMALL
USER_CHARGES
****
****
@<TRIPOS>ATOM
1     C1      -0.6311   -5.8385   -2.6488 C.3     1  LIG   0.0833   0.5030 
2     C2       0.7638   -5.9264   -4.7015 C.3     1  LIG   0.1172   0.5030 
3     C3       1.5178   -5.1446   -5.7667 C.3     1  LIG  -0.0881   0.0000 
4     C4       2.0069   -3.7369   -5.3139 C.3     1  LIG  -0.0459   0.1435 
5     C5       1.0753   -2.7378   -5.8445 C.ar    1  LIG  -0.1463  -0.1435 
6     C6       0.0037   -2.1912   -5.1770 C.ar    1  LIG  -0.1265  -0.1435 
7     C7      -0.7064   -1.2479   -5.9038 C.ar    1  LIG  -0.0922  -0.1500 
8     C8      -0.2929   -0.9029   -7.2228 C.ar    1  LIG  -0.1212  -0.1500 
9     C9       0.8636   -1.4470   -7.8377 C.ar    1  LIG   0.1659   0.0825 
10    C10      1.5746   -2.3602   -7.0981 C.ar    1  LIG   0.0296   0.0825 
11    O1       2.8196   -2.9793   -7.3447 O.3     1  LIG  -0.2759  -0.3625 
12    C11      3.2465   -3.2586   -5.9926 C.3     1  LIG   0.0427   0.3410 
13    C12      4.3126   -4.2910   -5.7508 C.2     1  LIG   0.5724   0.4480 
14    O2       5.0004   -4.7881   -6.6341 O.2     1  LIG  -0.4548  -0.5700 
15    C13      4.5257   -4.5833   -4.2411 C.3     1  LIG  -0.1908   0.0610 
16    C14      3.2371   -4.6124   -3.3439 C.3     1  LIG  -0.0652   0.0000 
17    C15      2.1253   -3.6392   -3.8273 C.3     1  LIG  -0.0712   0.0000 
18    C16      0.6905   -3.8145   -3.2586 C.3     1  LIG   0.1502   0.5030 
19    C17     -0.1835   -2.5588   -3.7168 C.3     1  LIG  -0.0431   0.1435 
20    O3       1.1461   -0.9632   -9.0789 O.3     1  LIG  -0.3031  -0.3625 
21    C18      2.2567   -1.5352   -9.7573 C.3     1  LIG   0.1096   0.2800 
22    H1      -1.2010   -6.6740   -3.0639 H       1  LIG   0.1032   0.0000 
23    H2       0.1887   -6.1968   -2.0203 H       1  LIG   0.1026   0.0000 
24    H3      -1.2971   -5.1732   -2.0927 H       1  LIG   0.1017   0.0000 
25    H4       1.4139   -6.5553   -4.0902 H       1  LIG   0.0981   0.0000 
26    H5       0.0589   -6.6119   -5.1885 H       1  LIG   0.0986   0.0000 
27    H6       2.3508   -5.7794   -6.0905 H       1  LIG   0.1004   0.0000 
28    H7       0.8725   -5.0692   -6.6537 H       1  LIG   0.0974   0.0000 
29    H8      -1.5670   -0.7466   -5.4693 H       1  LIG   0.1524   0.1500 
30    H9      -0.8780   -0.1593   -7.7636 H       1  LIG   0.1743   0.1500 
31    H10      3.6194   -2.3044   -5.5599 H       1  LIG   0.0904   0.0000 
32    H11      5.0532   -5.5382   -4.1425 H       1  LIG   0.0970   0.0000 
33    H12      5.1909   -3.7949   -3.8688 H       1  LIG   0.0870   0.0000 
34    H13      2.9018   -5.6447   -3.2684 H       1  LIG   0.0403   0.0000 
35    H14      3.5223   -4.3440   -2.3184 H       1  LIG   0.0708   0.0000 
36    H15      2.5226   -2.6568   -3.5091 H       1  LIG   0.1032   0.0000 
37    H16      0.7092   -3.8423   -2.1563 H       1  LIG   0.1046   0.0000 
38    H17      0.1309   -1.6953   -3.1170 H       1  LIG   0.1018   0.0000 
39    H18     -1.2446   -2.7393   -3.5088 H       1  LIG   0.0680   0.0000 
40    H19      2.2962   -1.0964  -10.7591 H       1  LIG   0.0858   0.0000 
41    H20      3.1952   -1.2867   -9.2518 H       1  LIG   0.0512   0.0000 
42    H21      2.1383   -2.6173   -9.8757 H       1  LIG   0.0525   0.0000 
43    N1      -0.0476   -5.0549   -3.8045 N.4     1  LIG  -0.6836  -0.9590 
44    H22     -0.8791   -4.7542   -4.3457 H       1  LIG   0.4556   0.4500 
@<TRIPOS>BOND
1     1     22    1
2     1     23    1
3     1     24    1
4     1     43    1
5     2     3     1
6     2     25    1
7     2     26    1
8     2     43    1
9     3     4     1
10    3     27    1
11    3     28    1
12    4     12    1
13    4     17    1
14    4     5     1
15    5     10    ar
16    5     6     ar
17    6     19    1
18    6     7     ar
19    7     8     ar
20    7     29    1
21    8     9     ar
22    8     30    1
23    9     10    ar
24    9     20    1
25    10    11    1
26    11    12    1
27    12    13    1
28    12    31    1
29    13    14    2
30    13    15    1
31    15    16    1
32    15    32    1
33    15    33    1
34    16    17    1
35    16    34    1
36    16    35    1
37    17    18    1
38    17    36    1
39    18    19    1
40    18    37    1
41    18    43    1
42    19    38    1
43    19    39    1
44    20    21    1
45    21    40    1
46    21    41    1
47    21    42    1
48    43    44    1
@<TRIPOS>SUBSTRUCTURE
1   LIG    1    
 
########## Number      : 89
########## Name        : ZINC00000591
########## Description : AM1BCC_CHARGES =   0.0001 ORIGINAL_CHARGES =   0.0000

@<TRIPOS>MOLECULE
ZINC00000591
21    22    1     0     0    
SMALL
USER_CHARGES
****
****
@<TRIPOS>ATOM
1     C1       3.2684   -8.7551    0.5209 C.ar    1  LIG  -0.1173  -0.1500 
2     C2       3.9955   -7.9847   -0.3838 C.ar    1  LIG  -0.1293  -0.1500 
3     C3       3.4996   -6.7510   -0.8100 C.ar    1  LIG  -0.1044  -0.1500 
4     C4       2.2713   -6.2704   -0.3320 C.ar    1  LIG  -0.0913  -0.1435 
5     C5       1.5460   -7.0607    0.5735 C.ar    1  LIG  -0.1019  -0.1500 
6     C6       2.0438   -8.2940    0.9984 C.ar    1  LIG  -0.1295  -0.1500 
7     C7       1.7398   -4.9387   -0.8175 C.3     1  LIG   0.0582   0.4845 
8     C8       0.5683   -5.0827   -1.7528 C.2     1  LIG   0.6820   0.7200 
9     O1       0.5641   -5.7316   -2.7888 O.2     1  LIG  -0.5010  -0.5700 
10    N1      -0.4784   -4.3645   -1.2333 N.2     1  LIG  -0.7387  -0.6610 
11    C9      -0.0601   -3.8794   -0.1111 C.2     1  LIG   0.8354   0.6500 
12    O2       1.2223   -4.1743    0.2543 O.3     1  LIG  -0.4515  -0.4300 
13    N2      -0.7248   -3.1046    0.7831 N.pl3   1  LIG  -0.9162  -0.8500 
14    H1      -1.6845   -2.8233    0.6195 H       1  LIG   0.4673   0.4000 
15    H2      -0.2786   -2.7887    1.6362 H       1  LIG   0.4595   0.4000 
16    H3       3.6545   -9.7150    0.8512 H       1  LIG   0.1341   0.1500 
17    H4       4.9489   -8.3449   -0.7600 H       1  LIG   0.1356   0.1500 
18    H5       4.0812   -6.1684   -1.5206 H       1  LIG   0.1361   0.1500 
19    H6       0.5855   -6.7235    0.9555 H       1  LIG   0.1351   0.1500 
20    H7       1.4739   -8.8954    1.7010 H       1  LIG   0.1348   0.1500 
21    H8       2.5467   -4.4011   -1.3375 H       1  LIG   0.1031   0.0000 
@<TRIPOS>BOND
1     1     6     ar
2     1     2     ar
3     1     16    1
4     2     3     ar
5     2     17    1
6     3     4     ar
7     3     18    1
8     4     5     ar
9     4     7     1
10    5     6     ar
11    5     19    1
12    6     20    1
13    7     12    1
14    7     8     1
15    7     21    1
16    8     9     2
17    8     10    1
18    10    11    2
19    11    12    1
20    11    13    1
21    13    14    1
22    13    15    1
@<TRIPOS>SUBSTRUCTURE
1   LIG    1    
 
########## Number      : 90
########## Name        : ZINC00000593
########## Description : AM1BCC_CHARGES =   0.0002 ORIGINAL_CHARGES =   0.0000

@<TRIPOS>MOLECULE
ZINC00000593
22    21    1     0     0    
SMALL
USER_CHARGES
****
****
@<TRIPOS>ATOM
1     C1      -1.0081    3.5594   -0.8319 C.3     1  LIG  -0.0930   0.0000 
2     C2      -0.7105    3.1580    0.6054 C.3     1  LIG  -0.0796   0.0000 
3     C3       0.1845    4.1916    1.2974 C.3     1  LIG  -0.0795   0.0000 
4     C4       0.5900    3.8270    2.7315 C.3     1  LIG   0.1620   0.2800 
5     C5      -0.6093    3.6936    3.6710 C.3     1  LIG  -0.1216   0.0000 
6     O1       1.2917    2.5723    2.6927 O.3     1  LIG  -0.4492  -0.4300 
7     C6       2.2125    2.3364    3.6673 C.2     1  LIG   0.7428   0.7800 
8     O2       2.4994    3.0998    4.5814 O.2     1  LIG  -0.5990  -0.5700 
9     N1       2.7859    1.1069    3.4860 N.am    1  LIG  -0.6589  -0.8000 
10    H1       3.4966    0.7635    4.1213 H       1  LIG   0.3331   0.3700 
11    H2       2.5128    0.5119    2.7126 H       1  LIG   0.3266   0.3700 
12    H3      -1.6517    2.8130   -1.3080 H       1  LIG   0.0338   0.0000 
13    H4      -1.5216    4.5253   -0.8710 H       1  LIG   0.0312   0.0000 
14    H5      -0.0862    3.6355   -1.4172 H       1  LIG   0.0332   0.0000 
15    H6      -1.6592    3.0569    1.1431 H       1  LIG   0.0398   0.0000 
16    H7      -0.2273    2.1747    0.6061 H       1  LIG   0.0528   0.0000 
17    H8       1.1000    4.3039    0.7022 H       1  LIG   0.0519   0.0000 
18    H9      -0.3183    5.1665    1.2999 H       1  LIG   0.0496   0.0000 
19    H10      1.2296    4.6342    3.1235 H       1  LIG   0.0735   0.0000 
20    H11     -1.2206    2.8205    3.4206 H       1  LIG   0.0456   0.0000 
21    H12     -0.2720    3.5443    4.7024 H       1  LIG   0.0594   0.0000 
22    H13     -1.2366    4.5896    3.6434 H       1  LIG   0.0457   0.0000 
@<TRIPOS>BOND
1     1     2     1
2     1     12    1
3     1     13    1
4     1     14    1
5     2     3     1
6     2     15    1
7     2     16    1
8     3     4     1
9     3     17    1
10    3     18    1
11    4     5     1
12    4     6     1
13    4     19    1
14    5     20    1
15    5     21    1
16    5     22    1
17    6     7     1
18    7     8     2
19    7     9     am
20    9     10    1
21    9     11    1
@<TRIPOS>SUBSTRUCTURE
1   LIG    1    
 
########## Number      : 91
########## Name        : ZINC00000594
########## Description : AM1BCC_CHARGES =   1.0001 ORIGINAL_CHARGES =   1.0000

@<TRIPOS>MOLECULE
ZINC00000594
49    50    1     0     0    
SMALL
USER_CHARGES
****
****
@<TRIPOS>ATOM
1     C1       5.6745   -1.7463    0.5367 C.3     1  LIG  -0.0936   0.0000 
2     C2       4.1515   -1.7913    0.5507 C.3     1  LIG  -0.0801   0.0000 
3     C3       3.4871   -0.6299   -0.2247 C.3     1  LIG  -0.0564   0.0000 
4     C4       3.8744   -0.6894   -1.7184 C.3     1  LIG  -0.0995   0.0000 
5     C5       1.9282   -0.7152   -0.0738 C.3     1  LIG  -0.0461   0.2045 
6     C6       1.4300   -0.6522    1.3649 C.ar    1  LIG  -0.1063  -0.1435 
7     C7       0.4381   -1.5528    1.7857 C.ar    1  LIG  -0.1103  -0.1500 
8     C8      -0.0598   -1.5092    3.0893 C.ar    1  LIG  -0.1247  -0.1500 
9     C9       0.4202   -0.5601    3.9882 C.ar    1  LIG  -0.1123  -0.1500 
10    C10      1.3953    0.3481    3.5833 C.ar    1  LIG  -0.1353  -0.1500 
11    C11      1.8947    0.3059    2.2799 C.ar    1  LIG  -0.1194  -0.1500 
12    C12      1.2376    0.3825   -0.8668 C.2     1  LIG   0.6492   0.6590 
13    O1       0.2845    0.1679   -1.6072 O.2     1  LIG  -0.5333  -0.5700 
14    O2       1.7787    1.6068   -0.6092 O.3     1  LIG  -0.4355  -0.4300 
15    C13      1.1769    2.7449   -1.2544 C.3     1  LIG   0.1435   0.2800 
16    C14     -0.0425    3.2052   -0.4545 C.3     1  LIG  -0.1433   0.0000 
17    C15     -0.6161    4.5013   -1.0038 C.3     1  LIG   0.1181   0.5030 
18    C16      1.6535    5.1470   -1.8590 C.3     1  LIG   0.1150   0.5030 
19    C17      2.2290    3.8518   -1.3101 C.3     1  LIG  -0.1145   0.0000 
20    C18     -0.0792    6.8941   -1.4552 C.3     1  LIG   0.0842   0.5030 
21    H1       6.0767   -2.5134    1.2067 H       1  LIG   0.0473   0.0000 
22    H2       6.0761   -1.9430   -0.4613 H       1  LIG   0.0374   0.0000 
23    H3       6.0424   -0.7735    0.8772 H       1  LIG   0.0320   0.0000 
24    H4       3.8404   -1.7704    1.6006 H       1  LIG   0.0549   0.0000 
25    H5       3.8205   -2.7547    0.1436 H       1  LIG   0.0491   0.0000 
26    H6       3.8772    0.3329    0.1444 H       1  LIG   0.0589   0.0000 
27    H7       3.5693   -1.6409   -2.1669 H       1  LIG   0.0492   0.0000 
28    H8       3.4101    0.1194   -2.2908 H       1  LIG   0.0231   0.0000 
29    H9       4.9549   -0.5811   -1.8524 H       1  LIG   0.0526   0.0000 
30    H10      1.6681   -1.7067   -0.4846 H       1  LIG   0.1007   0.0000 
31    H11      0.0442   -2.2981    1.0984 H       1  LIG   0.1425   0.1500 
32    H12     -0.8240   -2.2152    3.4015 H       1  LIG   0.1459   0.1500 
33    H13      0.0324   -0.5261    5.0022 H       1  LIG   0.1436   0.1500 
34    H14      1.7669    1.0924    4.2819 H       1  LIG   0.1366   0.1500 
35    H15      2.6486    1.0326    1.9895 H       1  LIG   0.1334   0.1500 
36    H16      0.8862    2.4828   -2.2801 H       1  LIG   0.0898   0.0000 
37    H17     -0.8149    2.4276   -0.4641 H       1  LIG   0.1252   0.0000 
38    H18      0.2345    3.3317    0.6005 H       1  LIG   0.0838   0.0000 
39    H19     -0.9868    4.3820   -2.0279 H       1  LIG   0.1064   0.0000 
40    H20     -1.4234    4.8687   -0.3618 H       1  LIG   0.1039   0.0000 
41    H21      1.3135    5.0366   -2.8947 H       1  LIG   0.1052   0.0000 
42    H22      2.3914    5.9536   -1.7989 H       1  LIG   0.1037   0.0000 
43    H23      2.6452    4.0191   -0.3078 H       1  LIG   0.0858   0.0000 
44    H24      3.0736    3.5254   -1.9289 H       1  LIG   0.1119   0.0000 
45    H25      0.7290    7.6266   -1.3833 H       1  LIG   0.1043   0.0000 
46    H26     -0.4425    6.8097   -2.4829 H       1  LIG   0.1060   0.0000 
47    H27     -0.8892    7.1662   -0.7734 H       1  LIG   0.1053   0.0000 
48    N1       0.4628    5.5581   -1.0256 N.4     1  LIG  -0.6872  -0.9590 
49    H28      0.7930    5.6782   -0.0578 H       1  LIG   0.4494   0.4500 
@<TRIPOS>BOND
1     1     2     1
2     1     21    1
3     1     22    1
4     1     23    1
5     2     3     1
6     2     24    1
7     2     25    1
8     3     4     1
9     3     5     1
10    3     26    1
11    4     27    1
12    4     28    1
13    4     29    1
14    5     6     1
15    5     12    1
16    5     30    1
17    6     11    ar
18    6     7     ar
19    7     8     ar
20    7     31    1
21    8     9     ar
22    8     32    1
23    9     10    ar
24    9     33    1
25    10    11    ar
26    10    34    1
27    11    35    1
28    12    13    2
29    12    14    1
30    14    15    1
31    15    19    1
32    15    16    1
33    15    36    1
34    16    17    1
35    16    37    1
36    16    38    1
37    17    39    1
38    17    40    1
39    17    48    1
40    18    19    1
41    18    41    1
42    18    42    1
43    18    48    1
44    19    43    1
45    19    44    1
46    20    45    1
47    20    46    1
48    20    47    1
49    20    48    1
50    48    49    1
@<TRIPOS>SUBSTRUCTURE
1   LIG    1    
 
########## Number      : 92
########## Name        : ZINC00000600
########## Description : AM1BCC_CHARGES =  -0.0002 ORIGINAL_CHARGES =   0.0000

@<TRIPOS>MOLECULE
ZINC00000600
27    27    1     0     0    
SMALL
USER_CHARGES
****
****
@<TRIPOS>ATOM
1     C1       3.8806    1.9365    3.7091 C.3     1  LIG  -0.0629   0.1382 
2     C2       3.6800    1.1059    2.4661 C.2     1  LIG  -0.1117  -0.2764 
3     C3       3.2600   -0.1655    2.5805 C.2     1  LIG  -0.2237  -0.3000 
4     C4       3.9588    1.8359    1.1534 C.3     1  LIG  -0.0298   0.1382 
5     C5       3.3263    1.1373   -0.0736 C.3     1  LIG  -0.0729   0.0000 
6     C6       3.5808    1.9481   -1.3502 C.3     1  LIG  -0.0393   0.1382 
7     C7       5.0060    2.4064   -1.4680 C.2     1  LIG  -0.1856  -0.1238 
8     C8       5.8668    2.3914   -0.4380 C.2     1  LIG  -0.1195  -0.2882 
9     C9       5.4799    1.9534    0.9482 C.3     1  LIG  -0.0473   0.1382 
10    C10      5.4586    2.8711   -2.8065 C.2     1  LIG   0.4074   0.3756 
11    N1       6.6548    3.2730   -3.0849 N.2     1  LIG  -0.4499  -0.5130 
12    O1       6.7053    3.6309   -4.4351 O.3     1  LIG  -0.3597  -0.3370 
13    H1       7.6318    3.9113   -4.5302 H       1  LIG   0.4373   0.4000 
14    H2       3.5994    1.3960    4.6194 H       1  LIG   0.0398   0.0000 
15    H3       4.9296    2.2304    3.8126 H       1  LIG   0.0421   0.0000 
16    H4       3.2670    2.8422    3.6630 H       1  LIG   0.0432   0.0000 
17    H5       3.0941   -0.8076    1.7240 H       1  LIG   0.1144   0.1500 
18    H6       3.0735   -0.6095    3.5537 H       1  LIG   0.1121   0.1500 
19    H7       3.4903    2.8362    1.1799 H       1  LIG   0.0572   0.0000 
20    H8       3.7556    0.1357   -0.2098 H       1  LIG   0.0469   0.0000 
21    H9       2.2450    1.0137    0.0628 H       1  LIG   0.0477   0.0000 
22    H10      3.3074    1.3309   -2.2144 H       1  LIG   0.0497   0.0000 
23    H11      2.9262    2.8283   -1.3615 H       1  LIG   0.0503   0.0000 
24    H12      6.8992    2.7053   -0.5675 H       1  LIG   0.1388   0.1500 
25    H13      5.8866    2.6817    1.6606 H       1  LIG   0.0530   0.0000 
26    H14      5.9780    0.9965    1.1513 H       1  LIG   0.0609   0.0000 
27    H15      4.6761    2.8548   -3.5876 H       1  LIG   0.0013   0.0600 
@<TRIPOS>BOND
1     1     2     1
2     1     14    1
3     1     15    1
4     1     16    1
5     2     3     2
6     2     4     1
7     3     17    1
8     3     18    1
9     4     9     1
10    4     5     1
11    4     19    1
12    5     6     1
13    5     20    1
14    5     21    1
15    6     7     1
16    6     22    1
17    6     23    1
18    7     8     2
19    7     10    1
20    8     9     1
21    8     24    1
22    9     25    1
23    9     26    1
24    10    11    2
25    10    27    1
26    11    12    1
27    12    13    1
@<TRIPOS>SUBSTRUCTURE
1   LIG    1    
 
########## Number      : 93
########## Name        : ZINC00000602
########## Description : AM1BCC_CHARGES =   0.0002 ORIGINAL_CHARGES =  -0.0000

@<TRIPOS>MOLECULE
ZINC00000602
26    26    1     0     0    
SMALL
USER_CHARGES
****
****
@<TRIPOS>ATOM
1     C1       5.4090   -9.3436    0.2976 C.3     1  LIG  -0.0997   0.0000 
2     C2       4.5676   -8.0893    0.4525 C.3     1  LIG   0.1286   0.2800 
3     O1       3.5651   -8.1044   -0.5632 O.3     1  LIG  -0.3324  -0.3625 
4     C3       2.6956   -7.0478   -0.5937 C.ar    1  LIG   0.1021   0.0825 
5     C4       2.6991   -5.9576    0.2767 C.ar    1  LIG  -0.1791  -0.1500 
6     C5       1.7500   -4.9349    0.1397 C.ar    1  LIG  -0.1207  -0.1500 
7     C6       0.7855   -4.9894   -0.8693 C.ar    1  LIG   0.0340   0.1170 
8     C7       0.7865   -6.0858   -1.7403 C.ar    1  LIG  -0.1527  -0.1500 
9     C8       1.7327   -7.1046   -1.6030 C.ar    1  LIG  -0.1317  -0.1500 
10    N1      -0.2063   -4.0034   -1.0784 N.am    1  LIG  -0.4718  -0.5470 
11    C9      -0.4046   -2.8381   -0.3503 C.2     1  LIG   0.6648   0.5690 
12    O2       0.2366   -2.4333    0.6137 O.2     1  LIG  -0.5936  -0.5700 
13    C10     -1.5706   -2.0484   -0.8899 C.3     1  LIG  -0.1787   0.0610 
14    H1      -0.8410   -4.1787   -1.8534 H       1  LIG   0.3131   0.3700 
15    H2       6.1961   -9.3811    1.0559 H       1  LIG   0.0444   0.0000 
16    H3       4.7860  -10.2395    0.3896 H       1  LIG   0.0503   0.0000 
17    H4       5.8715   -9.3774   -0.6944 H       1  LIG   0.0507   0.0000 
18    H5       4.1032   -8.0909    1.4454 H       1  LIG   0.0381   0.0000 
19    H6       5.2122   -7.2102    0.3380 H       1  LIG   0.0380   0.0000 
20    H7       3.4266   -5.8666    1.0776 H       1  LIG   0.1399   0.1500 
21    H8       1.8011   -4.1127    0.8447 H       1  LIG   0.1748   0.1500 
22    H9       0.0510   -6.1627   -2.5379 H       1  LIG   0.1291   0.1500 
23    H10      1.7124   -7.9456   -2.2921 H       1  LIG   0.1489   0.1500 
24    H11     -1.7052   -1.1374   -0.3001 H       1  LIG   0.0815   0.0000 
25    H12     -1.3818   -1.7714   -1.9310 H       1  LIG   0.0604   0.0000 
26    H13     -2.4842   -2.6469   -0.8301 H       1  LIG   0.0619   0.0000 
@<TRIPOS>BOND
1     1     2     1
2     1     15    1
3     1     16    1
4     1     17    1
5     2     3     1
6     2     18    1
7     2     19    1
8     3     4     1
9     4     9     ar
10    4     5     ar
11    5     6     ar
12    5     20    1
13    6     7     ar
14    6     21    1
15    7     8     ar
16    7     10    1
17    8     9     ar
18    8     22    1
19    9     23    1
20    10    11    am
21    10    14    1
22    11    12    2
23    11    13    1
24    13    24    1
25    13    25    1
26    13    26    1
@<TRIPOS>SUBSTRUCTURE
1   LIG    1    
 
########## Number      : 94
########## Name        : ZINC00000603
########## Description : AM1BCC_CHARGES =  -0.0001 ORIGINAL_CHARGES =   0.0000

@<TRIPOS>MOLECULE
ZINC00000603
29    29    1     0     0    
SMALL
USER_CHARGES
****
****
@<TRIPOS>ATOM
1     C1       4.7452   -4.6522   -0.7656 C.3     1  LIG  -0.0897   0.0000 
2     C2       4.6449   -5.7629    0.2904 C.3     1  LIG   0.1331   0.2800 
3     C3       6.0704   -6.1386    0.7382 C.3     1  LIG  -0.1264   0.0000 
4     C4       3.7018   -5.4111    1.5173 C.3     1  LIG   0.1853   0.4235 
5     C5       4.3033   -4.2590    2.3513 C.3     1  LIG  -0.0871   0.0000 
6     C6       2.2770   -5.0774    1.0329 C.ar    1  LIG  -0.0960  -0.1435 
7     C7       1.3489   -6.1072    0.7820 C.ar    1  LIG  -0.1062  -0.1500 
8     C8       0.0529   -5.8307    0.3363 C.ar    1  LIG  -0.1235  -0.1500 
9     C9      -0.3391   -4.5129    0.1290 C.ar    1  LIG   0.0194   0.1770 
10    C10      0.5551   -3.4732    0.3610 C.ar    1  LIG  -0.1278  -0.1500 
11    C11      1.8506   -3.7553    0.8069 C.ar    1  LIG  -0.1125  -0.1500 
12    Cl1     -1.9330   -4.1676   -0.4209 Cl      1  LIG  -0.0944  -0.1770 
13    O1       3.6357   -6.5349    2.4031 O.3     1  LIG  -0.6010  -0.6800 
14    O2       4.1121   -6.9103   -0.3963 O.3     1  LIG  -0.6075  -0.6800 
15    H1       3.5839   -7.3447    1.8707 H       1  LIG   0.4064   0.4000 
16    H2       4.4287   -7.7161    0.0447 H       1  LIG   0.4043   0.4000 
17    H3       3.7758   -4.4459   -1.2302 H       1  LIG   0.0591   0.0000 
18    H4       5.1481   -3.7219   -0.3565 H       1  LIG   0.0399   0.0000 
19    H5       5.3997   -4.9657   -1.5884 H       1  LIG   0.0484   0.0000 
20    H6       6.0561   -6.9360    1.4891 H       1  LIG   0.0527   0.0000 
21    H7       6.6505   -6.5285   -0.1069 H       1  LIG   0.0476   0.0000 
22    H8       6.6118   -5.2819    1.1506 H       1  LIG   0.0502   0.0000 
23    H9       4.5297   -3.3646    1.7653 H       1  LIG   0.0405   0.0000 
24    H10      3.6180   -3.9706    3.1585 H       1  LIG   0.0533   0.0000 
25    H11      5.2238   -4.5763    2.8543 H       1  LIG   0.0565   0.0000 
26    H12      1.6230   -7.1492    0.9260 H       1  LIG   0.1420   0.1500 
27    H13     -0.6342   -6.6528    0.1546 H       1  LIG   0.1482   0.1500 
28    H14      0.2626   -2.4394    0.1973 H       1  LIG   0.1467   0.1500 
29    H15      2.5201   -2.9141    0.9622 H       1  LIG   0.1384   0.1500 
@<TRIPOS>BOND
1     1     2     1
2     1     17    1
3     1     18    1
4     1     19    1
5     2     3     1
6     2     4     1
7     2     14    1
8     3     20    1
9     3     21    1
10    3     22    1
11    4     5     1
12    4     6     1
13    4     13    1
14    5     23    1
15    5     24    1
16    5     25    1
17    6     11    ar
18    6     7     ar
19    7     8     ar
20    7     26    1
21    8     9     ar
22    8     27    1
23    9     10    ar
24    9     12    1
25    10    11    ar
26    10    28    1
27    11    29    1
28    13    15    1
29    14    16    1
@<TRIPOS>SUBSTRUCTURE
1   LIG    1    
 
########## Number      : 95
########## Name        : ZINC00000607
########## Description : AM1BCC_CHARGES =   1.0001 ORIGINAL_CHARGES =   1.0000

@<TRIPOS>MOLECULE
ZINC00000607
39    40    1     0     0    
SMALL
USER_CHARGES
****
****
@<TRIPOS>ATOM
1     C1       3.7329   -9.4066    0.6845 C.3     1  LIG   0.0826   0.5030 
2     C2       5.9759   -8.3947    0.9928 C.3     1  LIG   0.0805   0.5030 
3     C3       3.9547   -6.9230    0.6065 C.3     1  LIG   0.1010   0.5030 
4     C4       4.4288   -5.7126    1.4163 C.3     1  LIG  -0.1006   0.0000 
5     C5       3.8211   -4.3827    0.8885 C.3     1  LIG  -0.0559   0.2870 
6     C6       2.3088   -4.2509    1.0326 C.ar    1  LIG  -0.1133  -0.1435 
7     C7       1.5911   -4.7737    2.1194 C.ar    1  LIG  -0.1469  -0.1500 
8     C8       0.2061   -4.6100    2.2064 C.ar    1  LIG  -0.1244  -0.1500 
9     C9      -0.4817   -3.9164    1.2140 C.ar    1  LIG  -0.1110  -0.1500 
10    C10      0.2148   -3.3813    0.1343 C.ar    1  LIG  -0.1156  -0.1500 
11    C11      1.5986   -3.5441    0.0459 C.ar    1  LIG  -0.1124  -0.1500 
12    C12      4.5131   -3.2033    1.5480 C.ar    1  LIG   0.3853   0.1665 
13    C13      4.5145   -3.0120    2.9302 C.ar    1  LIG  -0.2354  -0.1500 
14    C14      5.1721   -1.9022    3.4544 C.ar    1  LIG  -0.0854  -0.1500 
15    C15      5.8101   -1.0129    2.6012 C.ar    1  LIG  -0.2266  -0.1500 
16    C16      5.7630   -1.2754    1.2444 C.ar    1  LIG   0.4053   0.1600 
17    N1       5.1349   -2.3426    0.7016 N.ar    1  LIG  -0.6654  -0.6200 
18    H1       2.6785   -9.2724    0.9402 H       1  LIG   0.1066   0.0000 
19    H2       3.8712   -9.4689   -0.3982 H       1  LIG   0.1072   0.0000 
20    H3       4.1219  -10.2983    1.1832 H       1  LIG   0.1040   0.0000 
21    H4       6.5024   -7.5956    1.5181 H       1  LIG   0.1082   0.0000 
22    H5       6.2619   -9.3578    1.4245 H       1  LIG   0.1027   0.0000 
23    H6       6.1863   -8.3708   -0.0796 H       1  LIG   0.1071   0.0000 
24    H7       4.2813   -6.8745   -0.4381 H       1  LIG   0.1071   0.0000 
25    H8       2.8634   -7.0015    0.6353 H       1  LIG   0.1159   0.0000 
26    H9       4.2071   -5.8659    2.4789 H       1  LIG   0.0647   0.0000 
27    H10      5.5211   -5.6388    1.3418 H       1  LIG   0.0722   0.0000 
28    H11      4.0380   -4.4042   -0.1957 H       1  LIG   0.0858   0.0000 
29    H12      2.0932   -5.3105    2.9187 H       1  LIG   0.1132   0.1500 
30    H13     -0.3355   -5.0218    3.0535 H       1  LIG   0.1415   0.1500 
31    H14     -1.5579   -3.7890    1.2848 H       1  LIG   0.1493   0.1500 
32    H15     -0.3174   -2.8341   -0.6386 H       1  LIG   0.1500   0.1500 
33    H16      2.1236   -3.1112   -0.8031 H       1  LIG   0.1481   0.1500 
34    H17      4.0169   -3.7032    3.6018 H       1  LIG   0.1390   0.1500 
35    H18      5.1845   -1.7332    4.5272 H       1  LIG   0.1507   0.1500 
36    H19      6.3277   -0.1416    2.9855 H       1  LIG   0.1591   0.1500 
37    H20      6.2447   -0.6131    0.5325 H       1  LIG   0.0364   0.1500 
38    N2       4.4954   -8.2116    1.1972 N.4     1  LIG  -0.6796  -0.9590 
39    H21      4.3308   -8.1796    2.2124 H       1  LIG   0.4491   0.4500 
@<TRIPOS>BOND
1     1     18    1
2     1     19    1
3     1     20    1
4     1     38    1
5     2     21    1
6     2     22    1
7     2     23    1
8     2     38    1
9     3     4     1
10    3     24    1
11    3     25    1
12    3     38    1
13    4     5     1
14    4     26    1
15    4     27    1
16    5     6     1
17    5     12    1
18    5     28    1
19    6     11    ar
20    6     7     ar
21    7     8     ar
22    7     29    1
23    8     9     ar
24    8     30    1
25    9     10    ar
26    9     31    1
27    10    11    ar
28    10    32    1
29    11    33    1
30    12    17    ar
31    12    13    ar
32    13    14    ar
33    13    34    1
34    14    15    ar
35    14    35    1
36    15    16    ar
37    15    36    1
38    16    17    ar
39    16    37    1
40    38    39    1
@<TRIPOS>SUBSTRUCTURE
1   LIG    1    
 
########## Number      : 96
########## Name        : ZINC00000609
########## Description : AM1BCC_CHARGES =   1.0000 ORIGINAL_CHARGES =   1.0000

@<TRIPOS>MOLECULE
ZINC00000609
29    30    1     0     0    
SMALL
USER_CHARGES
****
****
@<TRIPOS>ATOM
1     C1       3.6927   -4.9626   -1.1135 C.3     1  LIG  -0.1353   0.0000 
2     C2       3.0077   -6.3314   -1.1096 C.3     1  LIG   0.0911   0.5030 
3     C3       1.8897   -6.4257   -0.0386 C.3     1  LIG   0.1886   0.4235 
4     O1       1.3531   -7.7517   -0.0303 O.3     1  LIG  -0.3707  -0.5600 
5     C4       2.3403   -8.7261    0.3108 C.3     1  LIG   0.1014   0.2800 
6     C5       3.4429   -8.7438   -0.7328 C.3     1  LIG   0.0656   0.5030 
7     C6       0.7451   -5.4638   -0.3088 C.ar    1  LIG  -0.1343  -0.1435 
8     C7      -0.0931   -5.6269   -1.4231 C.ar    1  LIG  -0.0984  -0.1500 
9     C8      -1.1371   -4.7323   -1.6647 C.ar    1  LIG  -0.1219  -0.1500 
10    C9      -1.3573   -3.6653   -0.7966 C.ar    1  LIG  -0.0914  -0.1500 
11    C10     -0.5349   -3.4927    0.3146 C.ar    1  LIG  -0.1207  -0.1500 
12    C11      0.5098   -4.3863    0.5586 C.ar    1  LIG  -0.1062  -0.1500 
13    H1       4.5212   -4.9468   -1.8302 H       1  LIG   0.0671   0.0000 
14    H2       2.9966   -4.1693   -1.4029 H       1  LIG   0.1152   0.0000 
15    H3       4.0975   -4.7159   -0.1258 H       1  LIG   0.0651   0.0000 
16    H4       2.5847   -6.4946   -2.1153 H       1  LIG   0.1213   0.0000 
17    H5       2.3093   -6.1742    0.9509 H       1  LIG   0.0686   0.0000 
18    H6       2.7323   -8.5162    1.3131 H       1  LIG   0.0658   0.0000 
19    H7       1.8464   -9.7020    0.3454 H       1  LIG   0.1308   0.0000 
20    H8       4.2509   -9.4316   -0.4698 H       1  LIG   0.1121   0.0000 
21    H9       3.0583   -8.9790   -1.7304 H       1  LIG   0.1182   0.0000 
22    H10      0.0585   -6.4558   -2.1103 H       1  LIG   0.1358   0.1500 
23    H11     -1.7796   -4.8694   -2.5299 H       1  LIG   0.1527   0.1500 
24    H12     -2.1701   -2.9698   -0.9848 H       1  LIG   0.1550   0.1500 
25    H13     -0.7069   -2.6616    0.9928 H       1  LIG   0.1537   0.1500 
26    H14      1.1393   -4.2314    1.4315 H       1  LIG   0.1363   0.1500 
27    N1       4.0320   -7.3717   -0.8141 N.4     1  LIG  -0.7649  -0.9060 
28    H15      4.7590   -7.3606   -1.5429 H       1  LIG   0.4539   0.4500 
29    H16      4.5160   -7.1539    0.0686 H       1  LIG   0.4455   0.4500 
@<TRIPOS>BOND
1     1     2     1
2     1     13    1
3     1     14    1
4     1     15    1
5     2     3     1
6     2     16    1
7     2     27    1
8     3     4     1
9     3     7     1
10    3     17    1
11    4     5     1
12    5     6     1
13    5     18    1
14    5     19    1
15    6     20    1
16    6     21    1
17    6     27    1
18    7     12    ar
19    7     8     ar
20    8     9     ar
21    8     22    1
22    9     10    ar
23    9     23    1
24    10    11    ar
25    10    24    1
26    11    12    ar
27    11    25    1
28    12    26    1
29    27    28    1
30    27    29    1
@<TRIPOS>SUBSTRUCTURE
1   LIG    1    
 
########## Number      : 97
########## Name        : ZINC00000615
########## Description : AM1BCC_CHARGES =   1.0000 ORIGINAL_CHARGES =   1.0000

@<TRIPOS>MOLECULE
ZINC00000615
28    28    1     0     0    
SMALL
USER_CHARGES
****
****
@<TRIPOS>ATOM
1     C1       2.8304   -4.5827    2.3419 C.3     1  LIG  -0.1379   0.0000 
2     C2       2.5492   -5.5500    1.1884 C.3     1  LIG   0.1281   0.5030 
3     C3       3.7887   -6.4251    0.9251 C.3     1  LIG  -0.0486   0.1435 
4     C4       3.6920   -7.2816   -0.3133 C.ar    1  LIG  -0.2004  -0.1435 
5     C5       3.7374   -6.6959   -1.5871 C.ar    1  LIG  -0.0904  -0.1500 
6     C6       3.6391   -7.4853   -2.7334 C.ar    1  LIG  -0.1482  -0.1500 
7     C7       3.4985   -8.8640   -2.6090 C.ar    1  LIG   0.1608   0.0825 
8     C8       3.4565   -9.4652   -1.3537 C.ar    1  LIG  -0.2106  -0.1500 
9     C9       3.5545   -8.6735   -0.2080 C.ar    1  LIG  -0.0932  -0.1500 
10    O1       3.4046   -9.6082   -3.7507 O.3     1  LIG  -0.4734  -0.5325 
11    C10      0.3595   -6.6008    0.5055 C.3     1  LIG   0.0773   0.5030 
12    H1       3.3209  -10.5453   -3.5051 H       1  LIG   0.4376   0.4500 
13    H2       3.6734   -3.9267    2.1002 H       1  LIG   0.1017   0.0000 
14    H3       1.9601   -3.9470    2.5379 H       1  LIG   0.0659   0.0000 
15    H4       3.0733   -5.1203    3.2651 H       1  LIG   0.0703   0.0000 
16    H5       2.2970   -4.9384    0.3070 H       1  LIG   0.1094   0.0000 
17    H6       4.6724   -5.7823    0.8108 H       1  LIG   0.1052   0.0000 
18    H7       4.0006   -7.0542    1.8001 H       1  LIG   0.0727   0.0000 
19    H8       3.8510   -5.6199   -1.6944 H       1  LIG   0.1412   0.1500 
20    H9       3.6746   -7.0213   -3.7150 H       1  LIG   0.1739   0.1500 
21    H10      3.3495  -10.5413   -1.2528 H       1  LIG   0.1551   0.1500 
22    H11      3.5220   -9.1523    0.7676 H       1  LIG   0.1325   0.1500 
23    H12     -0.4265   -7.2361    0.9200 H       1  LIG   0.1034   0.0000 
24    H13     -0.0418   -5.6185    0.2453 H       1  LIG   0.1048   0.0000 
25    H14      0.8225   -7.0826   -0.3566 H       1  LIG   0.1210   0.0000 
26    N1       1.3870   -6.4175    1.5688 N.4     1  LIG  -0.7594  -0.9060 
27    H15      1.7150   -7.3412    1.8832 H       1  LIG   0.4536   0.4500 
28    H16      0.9090   -6.0163    2.3876 H       1  LIG   0.4476   0.4500 
@<TRIPOS>BOND
1     1     2     1
2     1     13    1
3     1     14    1
4     1     15    1
5     2     3     1
6     2     16    1
7     2     26    1
8     3     4     1
9     3     17    1
10    3     18    1
11    4     9     ar
12    4     5     ar
13    5     6     ar
14    5     19    1
15    6     7     ar
16    6     20    1
17    7     8     ar
18    7     10    1
19    8     9     ar
20    8     21    1
21    9     22    1
22    10    12    1
23    11    23    1
24    11    24    1
25    11    25    1
26    11    26    1
27    26    27    1
28    26    28    1
@<TRIPOS>SUBSTRUCTURE
1   LIG    1    
 
########## Number      : 98
########## Name        : ZINC00000640
########## Description : AM1BCC_CHARGES =   0.0003 ORIGINAL_CHARGES =   0.0000

@<TRIPOS>MOLECULE
ZINC00000640
43    45    1     0     0    
SMALL
USER_CHARGES
****
****
@<TRIPOS>ATOM
1     C1       1.2123    4.2684    4.1515 C.3     1  LIG  -0.0816   0.1435 
2     C2       2.2821    3.2250    3.9365 C.ar    1  LIG   0.0426  -0.1435 
3     C3       3.0180    3.2346    2.7364 C.ar    1  LIG  -0.2505  -0.1435 
4     C4       4.0460    2.3145    2.6365 C.ar    1  LIG   0.4515   0.1600 
5     N1       4.3717    1.4235    3.5908 N.ar    1  LIG  -0.6611  -0.6200 
6     C5       3.6548    1.3665    4.7097 C.ar    1  LIG   0.7138   0.6200 
7     C6       2.5609    2.2172    4.9391 C.ar    1  LIG  -0.3712   0.0000 
8     C7       1.8728    1.9531    6.1551 C.ar    1  LIG   0.7311   0.4100 
9     N2       2.3012    1.0412    7.0549 N.ar    1  LIG  -0.8383  -0.6200 
10    C8       3.3798    0.3161    6.7459 C.ar    1  LIG   0.9312   0.7200 
11    N3       4.0460    0.4505    5.5915 N.ar    1  LIG  -0.7697  -0.6200 
12    N4       3.8237   -0.6237    7.6552 N.pl3   1  LIG  -0.9566  -0.9000 
13    N5       0.7077    2.6217    6.5166 N.pl3   1  LIG  -0.9376  -0.9000 
14    C9       2.7590    4.1578    1.5644 C.3     1  LIG   0.0218   0.2870 
15    C10      1.4716    3.8790    0.8081 C.ar    1  LIG  -0.0677  -0.1435 
16    C11      1.2464    2.5890    0.2899 C.ar    1  LIG  -0.1218  -0.1500 
17    C12      0.0839    2.2794   -0.4224 C.ar    1  LIG   0.0963   0.0825 
18    C13     -0.8658    3.2752   -0.6323 C.ar    1  LIG  -0.1732  -0.1500 
19    C14     -0.6512    4.5675   -0.1421 C.ar    1  LIG  -0.1682  -0.1500 
20    C15      0.5118    4.8824    0.5713 C.ar    1  LIG   0.0878   0.0825 
21    O1       0.7983    6.1291    1.0658 O.3     1  LIG  -0.3348  -0.3625 
22    C16     -0.1711    7.1522    0.8753 C.3     1  LIG   0.1148   0.2800 
23    O2      -0.0007    0.9837   -0.8565 O.3     1  LIG  -0.3248  -0.3625 
24    C17     -1.1701    0.6257   -1.5834 C.3     1  LIG   0.1137   0.2800 
25    H1       3.3330   -0.7420    8.5293 H       1  LIG   0.4409   0.4000 
26    H2       4.6352   -1.1830    7.4365 H       1  LIG   0.4466   0.4000 
27    H3       0.0167    2.7953    5.7991 H       1  LIG   0.4157   0.4000 
28    H4       0.3378    2.3807    7.4289 H       1  LIG   0.4181   0.4000 
29    H5       1.3710    5.1608    3.5429 H       1  LIG   0.0696   0.0000 
30    H6       0.2266    3.8603    3.9102 H       1  LIG   0.0441   0.0000 
31    H7       1.2308    4.6448    5.1783 H       1  LIG   0.0643   0.0000 
32    H8       4.6704    2.2591    1.7490 H       1  LIG   0.0233   0.1500 
33    H9       2.8187    5.1920    1.9208 H       1  LIG   0.0766   0.0000 
34    H10      3.5787    4.0801    0.8363 H       1  LIG   0.0581   0.0000 
35    H11      1.9895    1.8080    0.4409 H       1  LIG   0.1580   0.1500 
36    H12     -1.7843    3.0863   -1.1792 H       1  LIG   0.1385   0.1500 
37    H13     -1.4180    5.3101   -0.3421 H       1  LIG   0.1377   0.1500 
38    H14      0.2103    8.0640    1.3449 H       1  LIG   0.0662   0.0000 
39    H15     -0.3177    7.3633   -0.1890 H       1  LIG   0.0345   0.0000 
40    H16     -1.1165    6.8972    1.3652 H       1  LIG   0.0303   0.0000 
41    H17     -1.0849   -0.4314   -1.8531 H       1  LIG   0.0677   0.0000 
42    H18     -2.0683    0.7406   -0.9677 H       1  LIG   0.0309   0.0000 
43    H19     -1.2491    1.2007   -2.5120 H       1  LIG   0.0317   0.0000 
@<TRIPOS>BOND
1     1     2     1
2     1     29    1
3     1     30    1
4     1     31    1
5     2     7     ar
6     2     3     ar
7     3     4     ar
8     3     14    1
9     4     5     ar
10    4     32    1
11    5     6     ar
12    6     11    ar
13    6     7     ar
14    7     8     ar
15    8     9     ar
16    8     13    1
17    9     10    ar
18    10    11    ar
19    10    12    1
20    12    25    1
21    12    26    1
22    13    27    1
23    13    28    1
24    14    15    1
25    14    33    1
26    14    34    1
27    15    20    ar
28    15    16    ar
29    16    17    ar
30    16    35    1
31    17    18    ar
32    17    23    1
33    18    19    ar
34    18    36    1
35    19    20    ar
36    19    37    1
37    20    21    1
38    21    22    1
39    22    38    1
40    22    39    1
41    22    40    1
42    23    24    1
43    24    41    1
44    24    42    1
45    24    43    1
@<TRIPOS>SUBSTRUCTURE
1   LIG    1    
 
########## Number      : 99
########## Name        : ZINC00000662
########## Description : AM1BCC_CHARGES =  -0.9999 ORIGINAL_CHARGES =  -1.0000

@<TRIPOS>MOLECULE
ZINC00000662
38    40    1     0     0    
SMALL
USER_CHARGES
****
****
@<TRIPOS>ATOM
1     C1      -0.0233    3.0816    3.4649 C.3     1  LIG  -0.0875   0.0000 
2     C2       1.2049    2.2811    3.0539 C.3     1  LIG  -0.0849   0.0000 
3     C3       0.8862    0.7858    2.9577 C.3     1  LIG  -0.0940   0.0000 
4     C4       2.0059   -0.1284    2.3903 C.3     1  LIG   0.2427   0.4600 
5     C5       2.3276    0.2181    0.9598 C.2     1  LIG  -0.0306  -0.3316 
6     C6       3.5722    0.5381    0.4652 C.2     1  LIG  -0.1779  -0.1810 
7     C7       3.4440    0.7830   -0.9264 C.ar    1  LIG  -0.0716   0.0000 
8     C8       4.3384    1.1440   -1.9536 C.ar    1  LIG  -0.1012  -0.1500 
9     C9       3.8542    1.3054   -3.2567 C.ar    1  LIG  -0.1711  -0.1500 
10    C10      2.5048    1.1119   -3.5448 C.ar    1  LIG  -0.1425  -0.1500 
11    C11      1.5983    0.7518   -2.5435 C.ar    1  LIG  -0.1289  -0.1500 
12    C12      2.0948    0.5950   -1.2443 C.ar    1  LIG  -0.0458  -0.1516 
13    N1       1.4407    0.2459   -0.0815 N.pl3   1  LIG  -0.1499   0.0332 
14    C13      4.7403    0.5715    1.3731 C.3     1  LIG  -0.0230   0.1810 
15    C14      4.2350    0.8873    2.7853 C.3     1  LIG   0.1411   0.2800 
16    O1       3.1969   -0.0095    3.2101 O.3     1  LIG  -0.4180  -0.5600 
17    C15      1.5167   -1.5902    2.4847 C.3     1  LIG  -0.1983  -0.1060 
18    C16      2.4631   -2.6263    1.8655 C.2     1  LIG   0.9091   0.9060 
19    O2       3.5309   -2.8414    2.5040 O.co2   1  LIG  -0.7985  -0.9000 
20    H1       0.4549    0.0333   -0.0158 H       1  LIG   0.3535   0.2700 
21    H2       0.2271    4.1440    3.5461 H       1  LIG   0.0175   0.0000 
22    H3      -0.8246    2.9776    2.7264 H       1  LIG   0.0331   0.0000 
23    H4      -0.4035    2.7468    4.4353 H       1  LIG   0.0216   0.0000 
24    H5       1.5685    2.6643    2.0949 H       1  LIG   0.0544   0.0000 
25    H6       1.9856    2.4484    3.8027 H       1  LIG   0.0327   0.0000 
26    H7       0.6428    0.4443    3.9735 H       1  LIG   0.0418   0.0000 
27    H8      -0.0268    0.6577    2.3606 H       1  LIG   0.0576   0.0000 
28    H9       5.3930    1.2959   -1.7430 H       1  LIG   0.1169   0.1500 
29    H10      4.5404    1.5836   -4.0523 H       1  LIG   0.1074   0.1500 
30    H11      2.1501    1.2410   -4.5643 H       1  LIG   0.1098   0.1500 
31    H12      0.5485    0.5989   -2.7702 H       1  LIG   0.1306   0.1500 
32    H13      5.2239   -0.4122    1.3625 H       1  LIG   0.0532   0.0000 
33    H14      5.4736    1.3203    1.0577 H       1  LIG   0.0296   0.0000 
34    H15      5.0602    0.7896    3.4984 H       1  LIG   0.0438   0.0000 
35    H16      3.8816    1.9205    2.8473 H       1  LIG   0.0100   0.0000 
36    H17      1.3915   -1.8710    3.5393 H       1  LIG   0.0629   0.0000 
37    H18      0.5313   -1.6964    2.0111 H       1  LIG   0.0344   0.0000 
38    O3       2.0404   -3.1602    0.8004 O.co2   1  LIG  -0.8799  -0.9000 
@<TRIPOS>BOND
1     1     2     1
2     1     21    1
3     1     22    1
4     1     23    1
5     2     3     1
6     2     24    1
7     2     25    1
8     3     4     1
9     3     26    1
10    3     27    1
11    4     16    1
12    4     5     1
13    4     17    1
14    5     13    1
15    5     6     2
16    6     7     1
17    6     14    1
18    7     12    ar
19    7     8     ar
20    8     9     ar
21    8     28    1
22    9     10    ar
23    9     29    1
24    10    11    ar
25    10    30    1
26    11    12    ar
27    11    31    1
28    12    13    1
29    13    20    1
30    14    15    1
31    14    32    1
32    14    33    1
33    15    16    1
34    15    34    1
35    15    35    1
36    17    18    1
37    17    36    1
38    17    37    1
39    18    19    2
40    18    38    1
@<TRIPOS>SUBSTRUCTURE
1   LIG    1    
 
########## Number      : 100
########## Name        : ZINC00000672
########## Description : AM1BCC_CHARGES =  -0.0001 ORIGINAL_CHARGES =   0.0000

@<TRIPOS>MOLECULE
ZINC00000672
44    45    1     0     0    
SMALL
USER_CHARGES
****
****
@<TRIPOS>ATOM
1     C1       3.5368   -1.6229   -5.7765 C.3     1  LIG  -0.1287   0.0000 
2     C2       3.6490   -3.1199   -5.5061 C.3     1  LIG   0.1431   0.2800 
3     C3       4.8951   -3.7826   -6.0855 C.3     1  LIG  -0.1289   0.0000 
4     O1       3.3771   -3.4813   -4.1499 O.3     1  LIG  -0.3142  -0.3625 
5     C4       4.1805   -3.1790   -3.0910 C.ar    1  LIG   0.1054   0.0825 
6     C5       5.3506   -2.4232   -3.1239 C.ar    1  LIG  -0.1268  -0.1500 
7     C6       6.0714   -2.1833   -1.9433 C.ar    1  LIG  -0.1638   0.0862 
8     C7       5.6312   -2.6874   -0.7113 C.ar    1  LIG   0.1372   0.1000 
9     C8       4.4609   -3.4432   -0.6738 C.ar    1  LIG  -0.1935  -0.1500 
10    C9       3.7571   -3.6998   -1.8566 C.ar    1  LIG   0.1295   0.0825 
11    O2       2.5814   -4.4106   -1.8105 O.3     1  LIG  -0.3275  -0.3625 
12    C10      2.7771   -5.7888   -1.4532 C.3     1  LIG   0.1409   0.2800 
13    C11      1.8309   -6.1102   -0.3022 C.3     1  LIG  -0.1062   0.0000 
14    C12      2.4505   -6.6427   -2.6742 C.3     1  LIG  -0.1094   0.0000 
15    N1       6.3622   -2.4226    0.4486 N.pl3   1  LIG  -0.5997  -0.6000 
16    C13      7.5096   -1.6792    0.4094 C.2     1  LIG   0.1875  -0.0500 
17    C14      8.0534   -1.1346   -0.6921 C.2     1  LIG  -0.3364   0.0288 
18    C15      7.3224   -1.3739   -1.9832 C.2     1  LIG   0.5994   0.4694 
19    O3       7.7295   -0.9238   -3.0480 O.2     1  LIG  -0.5325  -0.5700 
20    C16      9.3106   -0.3376   -0.6381 C.2     1  LIG   0.6626   0.7056 
21    O4       9.8288    0.1697   -1.6231 O.2     1  LIG  -0.5083  -0.5700 
22    O5       9.7904   -0.2552    0.6324 O.3     1  LIG  -0.4754  -0.4300 
23    C17     11.0003    0.4938    0.7861 C.3     1  LIG   0.1326   0.2800 
24    H1       6.0464   -2.7860    1.3386 H       1  LIG   0.4565   0.4000 
25    H2       2.6267   -1.2199   -5.3197 H       1  LIG   0.0579   0.0000 
26    H3       4.3754   -1.0530   -5.3718 H       1  LIG   0.0509   0.0000 
27    H4       3.5005   -1.4285   -6.8535 H       1  LIG   0.0473   0.0000 
28    H5       2.8098   -3.5697   -6.0536 H       1  LIG   0.0771   0.0000 
29    H6       4.9098   -3.6857   -7.1761 H       1  LIG   0.0489   0.0000 
30    H7       5.8226   -3.3465   -5.7091 H       1  LIG   0.0525   0.0000 
31    H8       4.9149   -4.8476   -5.8307 H       1  LIG   0.0509   0.0000 
32    H9       5.7262   -2.0038   -4.0479 H       1  LIG   0.1751   0.1500 
33    H10      4.0911   -3.8294    0.2725 H       1  LIG   0.1462   0.1500 
34    H11      3.8075   -6.0031   -1.1395 H       1  LIG   0.0464   0.0000 
35    H12      1.9122   -7.1593   -0.0019 H       1  LIG   0.0434   0.0000 
36    H13      2.0570   -5.4816    0.5657 H       1  LIG   0.0372   0.0000 
37    H14      0.7909   -5.9030   -0.5778 H       1  LIG   0.0561   0.0000 
38    H15      2.5377   -7.7097   -2.4477 H       1  LIG   0.0391   0.0000 
39    H16      1.4361   -6.4410   -3.0360 H       1  LIG   0.0522   0.0000 
40    H17      3.1314   -6.4069   -3.4990 H       1  LIG   0.0534   0.0000 
41    H18      7.9450   -1.5754    1.3971 H       1  LIG   0.1776   0.1500 
42    H19     11.2746    0.4821    1.8443 H       1  LIG   0.0537   0.0000 
43    H20     11.8079    0.0326    0.2095 H       1  LIG   0.0450   0.0000 
44    H21     10.8460    1.5317    0.4755 H       1  LIG   0.0456   0.0000 
@<TRIPOS>BOND
1     1     2     1
2     1     25    1
3     1     26    1
4     1     27    1
5     2     3     1
6     2     4     1
7     2     28    1
8     3     29    1
9     3     30    1
10    3     31    1
11    4     5     1
12    5     10    ar
13    5     6     ar
14    6     7     ar
15    6     32    1
16    7     8     ar
17    7     18    1
18    8     9     ar
19    8     15    1
20    9     10    ar
21    9     33    1
22    10    11    1
23    11    12    1
24    12    13    1
25    12    14    1
26    12    34    1
27    13    35    1
28    13    36    1
29    13    37    1
30    14    38    1
31    14    39    1
32    14    40    1
33    15    24    1
34    15    16    1
35    16    41    1
36    16    17    2
37    17    20    1
38    17    18    1
39    18    19    2
40    20    21    2
41    20    22    1
42    22    23    1
43    23    42    1
44    23    43    1
45    23    44    1
@<TRIPOS>SUBSTRUCTURE
1   LIG    1    
 
########## Number      : 101
########## Name        : ZINC00000674
########## Description : AM1BCC_CHARGES =   1.0002 ORIGINAL_CHARGES =   1.0000

@<TRIPOS>MOLECULE
ZINC00000674
36    37    1     0     0    
SMALL
USER_CHARGES
****
****
@<TRIPOS>ATOM
1     C1       6.3696   -7.5206    0.3209 C.3     1  LIG  -0.1340   0.0000 
2     C2       5.2129   -8.4289   -0.0577 C.3     1  LIG   0.1133   0.5030 
3     C3       3.1064   -8.3377   -1.4386 C.3     1  LIG   0.1103   0.5030 
4     C4       3.6588   -8.2195   -2.8479 C.3     1  LIG  -0.1346   0.0000 
5     C5       3.2283   -7.0903    0.7528 C.3     1  LIG   0.1101   0.5030 
6     C6       2.5582   -5.7514    0.4164 C.3     1  LIG   0.0778   0.2800 
7     C7       1.7564   -5.2481    1.6121 C.3     1  LIG   0.1038   0.2800 
8     O1       1.0618   -4.0443    1.2692 O.3     1  LIG  -0.2928  -0.3625 
9     C8       1.8734   -3.1578    0.6110 C.ar    1  LIG   0.0540   0.0825 
10    C9       1.4212   -1.8436    0.4981 C.ar    1  LIG  -0.1032  -0.1500 
11    C10      2.2140   -0.8902   -0.1416 C.ar    1  LIG  -0.1076  -0.1500 
12    C11      3.4549   -1.2510   -0.6687 C.ar    1  LIG  -0.1165  -0.1500 
13    C12      3.9019   -2.5688   -0.5674 C.ar    1  LIG  -0.1120  -0.1500 
14    C13      3.1028   -3.5247    0.0588 C.ar    1  LIG   0.0323   0.0825 
15    O2       3.5855   -4.8055    0.1121 O.3     1  LIG  -0.3599  -0.3625 
16    H1       7.2480   -8.1224    0.5750 H       1  LIG   0.0985   0.0000 
17    H2       6.6426   -6.8639   -0.5118 H       1  LIG   0.0700   0.0000 
18    H3       6.1361   -6.8935    1.1858 H       1  LIG   0.0694   0.0000 
19    H4       4.9110   -9.0854    0.7651 H       1  LIG   0.0997   0.0000 
20    H5       5.5030   -9.0459   -0.9129 H       1  LIG   0.1022   0.0000 
21    H6       3.0305   -9.3783   -1.1061 H       1  LIG   0.1013   0.0000 
22    H7       2.1125   -7.8826   -1.3998 H       1  LIG   0.1003   0.0000 
23    H8       2.9902   -8.7228   -3.5536 H       1  LIG   0.1000   0.0000 
24    H9       3.7390   -7.1705   -3.1519 H       1  LIG   0.0708   0.0000 
25    H10      4.6470   -8.6780   -2.9429 H       1  LIG   0.0660   0.0000 
26    H11      3.9482   -6.9506    1.5653 H       1  LIG   0.1169   0.0000 
27    H12      2.5114   -7.8675    1.0392 H       1  LIG   0.1084   0.0000 
28    H13      1.8944   -5.8884   -0.4528 H       1  LIG   0.0825   0.0000 
29    H14      1.0041   -5.9851    1.9120 H       1  LIG   0.0968   0.0000 
30    H15      2.3969   -5.0444    2.4800 H       1  LIG   0.0719   0.0000 
31    H16      0.4604   -1.5540    0.9146 H       1  LIG   0.1679   0.1500 
32    H17      1.8670    0.1359   -0.2253 H       1  LIG   0.1568   0.1500 
33    H18      4.0719   -0.5051   -1.1619 H       1  LIG   0.1543   0.1500 
34    H19      4.8656   -2.8444   -0.9867 H       1  LIG   0.1494   0.1500 
35    N1       4.0050   -7.5986   -0.4603 N.4     1  LIG  -0.6903  -0.9590 
36    H20      4.3613   -6.7634   -0.9467 H       1  LIG   0.4664   0.4500 
@<TRIPOS>BOND
1     1     2     1
2     1     16    1
3     1     17    1
4     1     18    1
5     2     19    1
6     2     20    1
7     2     35    1
8     3     4     1
9     3     21    1
10    3     22    1
11    3     35    1
12    4     23    1
13    4     24    1
14    4     25    1
15    5     6     1
16    5     26    1
17    5     27    1
18    5     35    1
19    6     15    1
20    6     7     1
21    6     28    1
22    7     8     1
23    7     29    1
24    7     30    1
25    8     9     1
26    9     14    ar
27    9     10    ar
28    10    11    ar
29    10    31    1
30    11    12    ar
31    11    32    1
32    12    13    ar
33    12    33    1
34    13    14    ar
35    13    34    1
36    14    15    1
37    35    36    1
@<TRIPOS>SUBSTRUCTURE
1   LIG    1    
 
########## Number      : 102
########## Name        : ZINC00000677
########## Description : AM1BCC_CHARGES =   1.0001 ORIGINAL_CHARGES =   1.0000

@<TRIPOS>MOLECULE
ZINC00000677
46    48    1     0     0    
SMALL
USER_CHARGES
****
****
@<TRIPOS>ATOM
1     C1      -3.3208    5.2332    4.0364 C.3     1  LIG  -0.1378   0.0000 
2     C2      -2.1369    4.5449    3.3463 C.3     1  LIG   0.1266   0.5030 
3     C3      -1.6448    5.4167    2.1697 C.3     1  LIG  -0.0502   0.1435 
4     C4      -1.0137    4.6476    1.0292 C.ar    1  LIG  -0.1363  -0.1435 
5     C5      -1.7596    3.6751    0.3233 C.ar    1  LIG  -0.1281  -0.1500 
6     C6      -1.1944    2.9564   -0.7344 C.ar    1  LIG  -0.1091  -0.1500 
7     C7       0.1129    3.2326   -1.0704 C.ar    1  LIG   0.0773   0.0825 
8     C8       0.8421    4.1888   -0.4054 C.ar    1  LIG   0.0720   0.0825 
9     C9       0.3068    4.9191    0.6365 C.ar    1  LIG  -0.1254  -0.1500 
10    O1       2.1074    4.3061   -0.8921 O.3     1  LIG  -0.3229  -0.3625 
11    C10      2.0937    3.3101   -1.9352 C.3     1  LIG   0.3204   0.5600 
12    O2       0.8287    2.6280   -2.0566 O.3     1  LIG  -0.3205  -0.3625 
13    C11      0.1707    3.5739    4.0271 C.3     1  LIG   0.0844   0.5030 
14    C12     -0.1757    2.1064    3.7732 C.3     1  LIG   0.1999   0.4235 
15    C13      1.0573    1.3410    3.3210 C.ar    1  LIG  -0.1714  -0.1435 
16    C14      1.1485    0.8759    1.9983 C.ar    1  LIG  -0.0982  -0.1500 
17    C15      2.2838    0.1928    1.5552 C.ar    1  LIG  -0.1685  -0.1500 
18    C16      3.3366   -0.0313    2.4367 C.ar    1  LIG   0.0802   0.0825 
19    C17      3.2576    0.4225    3.7498 C.ar    1  LIG   0.1278   0.0825 
20    C18      2.1290    1.1055    4.1966 C.ar    1  LIG  -0.1362  -0.1500 
21    O3       4.2808    0.2129    4.6312 O.3     1  LIG  -0.4821  -0.5325 
22    O4       4.4616   -0.6957    2.0369 O.3     1  LIG  -0.4994  -0.5325 
23    O5      -0.6801    1.5470    4.9791 O.3     1  LIG  -0.6383  -0.6800 
24    H1       4.9766   -0.2740    4.1537 H       1  LIG   0.4535   0.4500 
25    H2       4.3584   -0.9462    1.1026 H       1  LIG   0.4451   0.4500 
26    H3      -0.6459    0.5776    4.9011 H       1  LIG   0.4560   0.4000 
27    H4      -4.1588    5.3522    3.3413 H       1  LIG   0.0965   0.0000 
28    H5      -3.6767    4.6396    4.8856 H       1  LIG   0.0678   0.0000 
29    H6      -3.0445    6.2259    4.4087 H       1  LIG   0.0677   0.0000 
30    H7      -2.4969    3.5624    3.0093 H       1  LIG   0.1116   0.0000 
31    H8      -2.4927    5.9608    1.7311 H       1  LIG   0.1027   0.0000 
32    H9      -0.9583    6.1927    2.5327 H       1  LIG   0.0683   0.0000 
33    H10     -2.7935    3.4754    0.5967 H       1  LIG   0.1405   0.1500 
34    H11     -1.7685    2.2074   -1.2681 H       1  LIG   0.1736   0.1500 
35    H12      0.9031    5.6720    1.1416 H       1  LIG   0.1592   0.1500 
36    H13      2.3224    3.7981   -2.8896 H       1  LIG   0.0957   0.0000 
37    H14      2.8727    2.5689   -1.7227 H       1  LIG   0.0843   0.0000 
38    H15      0.6707    4.0552    3.1863 H       1  LIG   0.1280   0.0000 
39    H16      0.8195    3.6761    4.9049 H       1  LIG   0.1086   0.0000 
40    H17     -0.9285    2.0114    2.9783 H       1  LIG   0.0694   0.0000 
41    H18      0.3335    1.0425    1.2985 H       1  LIG   0.1429   0.1500 
42    H19      2.3304   -0.1548    0.5272 H       1  LIG   0.1546   0.1500 
43    H20      2.0863    1.4540    5.2257 H       1  LIG   0.1567   0.1500 
44    N1      -1.0521    4.3748    4.3658 N.4     1  LIG  -0.7561  -0.9060 
45    H21     -0.7457    5.3051    4.6836 H       1  LIG   0.4417   0.4500 
46    H22     -1.4654    3.9331    5.2003 H       1  LIG   0.4676   0.4500 
@<TRIPOS>BOND
1     1     2     1
2     1     27    1
3     1     28    1
4     1     29    1
5     2     3     1
6     2     30    1
7     2     44    1
8     3     4     1
9     3     31    1
10    3     32    1
11    4     9     ar
12    4     5     ar
13    5     6     ar
14    5     33    1
15    6     7     ar
16    6     34    1
17    7     12    1
18    7     8     ar
19    8     9     ar
20    8     10    1
21    9     35    1
22    10    11    1
23    11    12    1
24    11    36    1
25    11    37    1
26    13    14    1
27    13    38    1
28    13    39    1
29    13    44    1
30    14    15    1
31    14    23    1
32    14    40    1
33    15    20    ar
34    15    16    ar
35    16    17    ar
36    16    41    1
37    17    18    ar
38    17    42    1
39    18    19    ar
40    18    22    1
41    19    20    ar
42    19    21    1
43    20    43    1
44    21    24    1
45    22    25    1
46    23    26    1
47    44    45    1
48    44    46    1
@<TRIPOS>SUBSTRUCTURE
1   LIG    1    
 
########## Number      : 103
########## Name        : ZINC00000685
########## Description : AM1BCC_CHARGES =   1.0002 ORIGINAL_CHARGES =   1.0000

@<TRIPOS>MOLECULE
ZINC00000685
38    41    1     0     0    
SMALL
USER_CHARGES
****
****
@<TRIPOS>ATOM
1     C1      -0.7292   12.3770    9.1784 C.ar    1  LIG  -0.1683  -0.1500 
2     C2      -0.2894   11.5575    8.1377 C.ar    1  LIG  -0.0171  -0.1500 
3     C3       0.9350   10.8907    8.2468 C.ar    1  LIG  -0.2976   0.0862 
4     C4       1.7189   11.0437    9.4012 C.ar    1  LIG   0.0335  -0.1435 
5     C5       1.2810   11.8787   10.4349 C.ar    1  LIG  -0.2339  -0.1500 
6     C6       0.0570   12.5336   10.3165 C.ar    1  LIG   0.2233   0.0825 
7     O1      -0.4043   13.3506   11.3096 O.3     1  LIG  -0.4555  -0.5325 
8     C7       3.0532   10.3595    9.4691 C.3     1  LIG  -0.0744   0.1435 
9     C8       3.0041    9.0130    8.7612 C.3     1  LIG  -0.0019   0.3461 
10    N1       2.4182    9.1594    7.3819 N.pl3   1  LIG  -0.1321  -0.0922 
11    C9       1.4635   10.0182    7.1598 C.2     1  LIG   0.4440   0.2528 
12    C10      0.8534   10.1338    5.7546 C.3     1  LIG  -0.1688   0.0610 
13    C11      1.5066    9.3217    4.6357 C.3     1  LIG  -0.0845   0.0000 
14    C12      1.9969    8.0372    5.2582 C.3     1  LIG  -0.0821   0.0000 
15    C13      3.0373    8.3579    6.2805 C.3     1  LIG  -0.0134   0.3461 
16    C14      3.4749    6.9499    6.6838 C.3     1  LIG  -0.0842   0.0000 
17    C15      3.4840    6.1802    5.3439 C.3     1  LIG  -0.0836   0.0000 
18    C16      2.6631    7.0206    4.3479 C.3     1  LIG  -0.0753   0.0000 
19    H1       0.2465   13.3620   12.0321 H       1  LIG   0.4476   0.4500 
20    H2      -1.6819   12.8928    9.0939 H       1  LIG   0.1840   0.1500 
21    H3      -0.9217   11.4560    7.2611 H       1  LIG   0.1536   0.1500 
22    H4       1.8940   12.0153   11.3218 H       1  LIG   0.1625   0.1500 
23    H5       3.8015   11.0120    9.0016 H       1  LIG   0.0916   0.0000 
24    H6       3.3553   10.2028   10.5111 H       1  LIG   0.1012   0.0000 
25    H7       4.0195    8.6154    8.6748 H       1  LIG   0.0986   0.0000 
26    H8       2.3758    8.2901    9.2933 H       1  LIG   0.0913   0.0000 
27    H9      -0.1889    9.7975    5.8390 H       1  LIG   0.1020   0.0000 
28    H10      0.8285   11.1902    5.4622 H       1  LIG   0.1074   0.0000 
29    H11      0.7893    9.1321    3.8298 H       1  LIG   0.0881   0.0000 
30    H12      2.3414    9.8859    4.2019 H       1  LIG   0.0701   0.0000 
31    H13      1.1023    7.5353    5.6704 H       1  LIG   0.0734   0.0000 
32    H14      3.9256    8.9041    5.9251 H       1  LIG   0.0927   0.0000 
33    H15      4.4621    6.9291    7.1565 H       1  LIG   0.0667   0.0000 
34    H16      2.7625    6.4794    7.3734 H       1  LIG   0.0631   0.0000 
35    H17      4.5069    6.0503    4.9739 H       1  LIG   0.0689   0.0000 
36    H18      3.0502    5.1832    5.4749 H       1  LIG   0.0707   0.0000 
37    H19      1.9419    6.4137    3.7925 H       1  LIG   0.0756   0.0000 
38    H20      3.3295    7.5073    3.6265 H       1  LIG   0.0630   0.0000 
@<TRIPOS>BOND
1     1     6     ar
2     1     2     ar
3     1     20    1
4     2     3     ar
5     2     21    1
6     3     11    1
7     3     4     ar
8     4     5     ar
9     4     8     1
10    5     6     ar
11    5     22    1
12    6     7     1
13    7     19    1
14    8     9     1
15    8     23    1
16    8     24    1
17    9     10    1
18    9     25    1
19    9     26    1
20    10    15    1
21    10    11    2
22    11    12    1
23    12    13    1
24    12    27    1
25    12    28    1
26    13    14    1
27    13    29    1
28    13    30    1
29    14    18    1
30    14    15    1
31    14    31    1
32    15    16    1
33    15    32    1
34    16    17    1
35    16    33    1
36    16    34    1
37    17    18    1
38    17    35    1
39    17    36    1
40    18    37    1
41    18    38    1
@<TRIPOS>SUBSTRUCTURE
1   LIG    1    
 
########## Number      : 104
########## Name        : ZINC00000687
########## Description : AM1BCC_CHARGES =  -1.0001 ORIGINAL_CHARGES =  -1.0000

@<TRIPOS>MOLECULE
ZINC00000687
34    34    1     0     0    
SMALL
USER_CHARGES
****
****
@<TRIPOS>ATOM
1     C1       4.6981   -7.8875   -2.9340 C.3     1  LIG  -0.1112   0.0000 
2     C2       5.0046   -7.6905   -1.4576 C.3     1  LIG   0.0987   0.3001 
3     N1       3.9017   -7.0171   -0.7627 N.am    1  LIG  -0.5130  -0.6602 
4     C3       2.8705   -7.8927   -0.1892 C.3     1  LIG   0.1069   0.3001 
5     C4       3.2192   -8.3172    1.2293 C.3     1  LIG  -0.1195   0.0000 
6     C5       3.9228   -5.6157   -0.6864 C.2     1  LIG   0.6724   0.5690 
7     O1       4.8197   -4.9537   -1.2158 O.2     1  LIG  -0.5608  -0.5700 
8     C6       2.7561   -4.9285    0.0398 C.3     1  LIG  -0.0855   0.0610 
9     C7       1.6420   -4.6224   -0.9817 C.3     1  LIG  -0.0548   0.1382 
10    C8       0.5969   -3.7006   -0.4250 C.2     1  LIG  -0.1633  -0.2882 
11    C9       0.7639   -2.9929    0.7012 C.2     1  LIG  -0.1668  -0.2882 
12    C10      2.0278   -3.0045    1.5169 C.3     1  LIG  -0.0265   0.1382 
13    C11      3.2297   -3.6962    0.8353 C.3     1  LIG  -0.1777  -0.1060 
14    C12      3.9482   -2.6251   -0.0177 C.2     1  LIG   0.9343   0.9060 
15    O2       3.3516   -2.1988   -1.0431 O.co2   1  LIG  -0.8314  -0.9000 
16    H1       5.5354   -8.3847   -3.4331 H       1  LIG   0.0214   0.0000 
17    H2       3.8030   -8.5021   -3.0735 H       1  LIG   0.0196   0.0000 
18    H3       4.5237   -6.9277   -3.4312 H       1  LIG   0.0558   0.0000 
19    H4       5.9179   -7.0935   -1.3578 H       1  LIG   0.0746   0.0000 
20    H5       5.1974   -8.6546   -0.9745 H       1  LIG   0.0147   0.0000 
21    H6       1.8989   -7.3955   -0.1970 H       1  LIG   0.0532   0.0000 
22    H7       2.7682   -8.7766   -0.8290 H       1  LIG   0.0239   0.0000 
23    H8       2.4319   -8.9580    1.6379 H       1  LIG   0.0232   0.0000 
24    H9       4.1598   -8.8767    1.2535 H       1  LIG   0.0299   0.0000 
25    H10      3.3331   -7.4510    1.8885 H       1  LIG   0.0488   0.0000 
26    H11      2.3035   -5.6051    0.7825 H       1  LIG   0.0224   0.0000 
27    H12      2.0474   -4.1974   -1.9071 H       1  LIG   0.1359   0.0000 
28    H13      1.1537   -5.5581   -1.2783 H       1  LIG   0.0112   0.0000 
29    H14     -0.3370   -3.6141   -0.9729 H       1  LIG   0.0956   0.1500 
30    H15     -0.0456   -2.3585    1.0512 H       1  LIG   0.0922   0.1500 
31    H16      2.2842   -1.9716    1.7835 H       1  LIG   0.0680   0.0000 
32    H17      1.8063   -3.5240    2.4579 H       1  LIG   0.0056   0.0000 
33    H18      3.9023   -4.0356    1.6448 H       1  LIG   0.0445   0.0000 
34    O3       5.0703   -2.2707    0.4526 O.co2   1  LIG  -0.8424  -0.9000 
@<TRIPOS>BOND
1     1     2     1
2     1     16    1
3     1     17    1
4     1     18    1
5     2     3     1
6     2     19    1
7     2     20    1
8     3     4     1
9     3     6     am
10    4     5     1
11    4     21    1
12    4     22    1
13    5     23    1
14    5     24    1
15    5     25    1
16    6     7     2
17    6     8     1
18    8     13    1
19    8     9     1
20    8     26    1
21    9     10    1
22    9     27    1
23    9     28    1
24    10    11    2
25    10    29    1
26    11    12    1
27    11    30    1
28    12    13    1
29    12    31    1
30    12    32    1
31    13    14    1
32    13    33    1
33    14    15    2
34    14    34    1
@<TRIPOS>SUBSTRUCTURE
1   LIG    1    
 
########## Number      : 105
########## Name        : ZINC00000706
########## Description : AM1BCC_CHARGES =   0.9999 ORIGINAL_CHARGES =   1.0000

@<TRIPOS>MOLECULE
ZINC00000706
39    44    1     0     0    
SMALL
USER_CHARGES
****
****
@<TRIPOS>ATOM
1     C1       0.6361   -3.5462   -2.8822 C.3     1  LIG  -0.0320   0.4880 
2     N1       0.2095   -2.1323   -2.7703 N.ar    1  LIG   0.0359  -0.2100 
3     C2      -0.5982   -1.7171   -3.7708 C.ar    1  LIG   0.0693   0.2110 
4     C3      -0.8753   -0.3827   -4.0062 C.ar    1  LIG  -0.1075   0.0000 
5     C4      -0.2859    0.5920   -3.1891 C.ar    1  LIG   0.0261   0.0000 
6     C5      -0.5710    1.9606   -3.5125 C.ar    1  LIG  -0.1266  -0.1500 
7     C6      -1.3968    2.3359   -4.5792 C.ar    1  LIG  -0.0309  -0.1500 
8     C7      -1.9483    1.3352   -5.3370 C.ar    1  LIG   0.0645   0.0825 
9     C8      -1.6961    0.0145   -5.0624 C.ar    1  LIG   0.1139   0.0825 
10    O1      -2.3333   -0.8136   -5.9416 O.3     1  LIG  -0.3264  -0.3625 
11    C9      -3.0123    0.1376   -6.7855 C.3     1  LIG   0.3240   0.5600 
12    O2      -2.7691    1.5054   -6.4068 O.3     1  LIG  -0.3050  -0.3625 
13    C10      0.5277    0.1444   -2.0979 C.ar    1  LIG  -0.0048   0.0000 
14    C11      0.6972   -1.2586   -1.8215 C.ar    1  LIG  -0.0150   0.3610 
15    C12      1.3612   -1.6722   -0.5951 C.ar    1  LIG  -0.0253   0.0000 
16    C13      1.3784   -2.9864   -0.0431 C.ar    1  LIG  -0.1596  -0.1500 
17    C14      2.0808   -3.2662    1.1157 C.ar    1  LIG   0.1058   0.0825 
18    C15      2.7571   -2.2964    1.7944 C.ar    1  LIG   0.0955   0.0825 
19    C16      2.7386   -0.9940    1.3627 C.ar    1  LIG  -0.1083  -0.1500 
20    C17      2.0230   -0.6768    0.1924 C.ar    1  LIG  -0.0166   0.0000 
21    C18      1.9466    0.6605   -0.1693 C.ar    1  LIG  -0.0623  -0.1500 
22    C19      1.1864    1.0614   -1.2608 C.ar    1  LIG  -0.1276  -0.1500 
23    O3       3.3765   -2.7699    2.9069 O.3     1  LIG  -0.3105  -0.3625 
24    C20      3.0095   -4.1636    2.8491 C.3     1  LIG   0.3197   0.5600 
25    O4       2.1749   -4.4835    1.7166 O.3     1  LIG  -0.3195  -0.3625 
26    H1       0.6284   -3.8445   -3.9362 H       1  LIG   0.0859   0.0000 
27    H2       1.6669   -3.6513   -2.5399 H       1  LIG   0.1124   0.0000 
28    H3      -0.0781   -4.1613   -2.3311 H       1  LIG   0.0930   0.0000 
29    H4      -0.9940   -2.4967   -4.4166 H       1  LIG   0.2087   0.1500 
30    H5      -0.1546    2.7721   -2.9205 H       1  LIG   0.1673   0.1500 
31    H6      -1.5916    3.3812   -4.7912 H       1  LIG   0.1882   0.1500 
32    H7      -2.6759   -0.0069   -7.8186 H       1  LIG   0.1021   0.0000 
33    H8      -4.0901   -0.0554   -6.7359 H       1  LIG   0.1022   0.0000 
34    H9       0.8161   -3.8047   -0.4713 H       1  LIG   0.1602   0.1500 
35    H10      3.2521   -0.2296    1.9401 H       1  LIG   0.1800   0.1500 
36    H11      2.4397    1.4298    0.4235 H       1  LIG   0.1665   0.1500 
37    H12      1.1392    2.1326   -1.4389 H       1  LIG   0.1608   0.1500 
38    H13      3.9234   -4.7663    2.7939 H       1  LIG   0.0963   0.0000 
39    H14      2.4703   -4.4234    3.7673 H       1  LIG   0.0995   0.0000 
@<TRIPOS>BOND
1     1     2     1
2     1     26    1
3     1     27    1
4     1     28    1
5     2     14    ar
6     2     3     ar
7     3     4     ar
8     3     29    1
9     4     9     ar
10    4     5     ar
11    5     6     ar
12    5     13    ar
13    6     7     ar
14    6     30    1
15    7     8     ar
16    7     31    1
17    8     12    1
18    8     9     ar
19    9     10    1
20    10    11    1
21    11    12    1
22    11    32    1
23    11    33    1
24    13    22    ar
25    13    14    ar
26    14    15    ar
27    15    20    ar
28    15    16    ar
29    16    17    ar
30    16    34    1
31    17    25    1
32    17    18    ar
33    18    19    ar
34    18    23    1
35    19    20    ar
36    19    35    1
37    20    21    ar
38    21    22    ar
39    21    36    1
40    22    37    1
41    23    24    1
42    24    25    1
43    24    38    1
44    24    39    1
@<TRIPOS>SUBSTRUCTURE
1   LIG    1    
 
########## Number      : 106
########## Name        : ZINC00000707
########## Description : AM1BCC_CHARGES =   0.0003 ORIGINAL_CHARGES =   0.0000

@<TRIPOS>MOLECULE
ZINC00000707
36    38    1     0     0    
SMALL
USER_CHARGES
****
****
@<TRIPOS>ATOM
1     C1      -0.3617    2.5356    3.3728 C.3     1  LIG  -0.0833   0.0000 
2     C2       0.0143    1.3965    2.4317 C.3     1  LIG  -0.1478   0.0610 
3     C3       1.3573    0.7215    2.7044 C.3     1  LIG  -0.0857   0.0000 
4     C4       2.4318    1.6513    3.2801 C.3     1  LIG  -0.0740   0.0000 
5     C5       3.7864    0.9539    3.4171 C.3     1  LIG  -0.0656   0.0000 
6     C6       4.0911   -0.1609    2.3793 C.3     1  LIG   0.0067   0.2764 
7     C7       5.5744   -0.1586    2.1041 C.2     1  LIG  -0.1014  -0.2882 
8     C8       6.1390   -0.0598    0.9010 C.2     1  LIG  -0.2384  -0.1356 
9     C9       5.3050    0.0567   -0.3041 C.2     1  LIG   0.5592   0.5412 
10    O1       5.8429    0.1148   -1.4064 O.2     1  LIG  -0.5218  -0.5700 
11    C10      3.8189    0.1175   -0.1391 C.2     1  LIG  -0.1371  -0.1238 
12    C11      3.2634    0.0711    1.0964 C.2     1  LIG  -0.0844  -0.2764 
13    C12      1.7544    0.2190    1.3294 C.3     1  LIG   0.1753   0.4182 
14    O2       1.1897    1.1792    0.4274 O.3     1  LIG  -0.4061  -0.4300 
15    C13      0.1525    1.8570    1.0180 C.2     1  LIG   0.7110   0.6590 
16    O3      -0.5445    2.6816    0.4494 O.2     1  LIG  -0.5606  -0.5700 
17    C14      3.0608    0.1846   -1.4388 C.3     1  LIG  -0.0629   0.1382 
18    C15      3.7401   -1.5556    2.9490 C.3     1  LIG  -0.0839   0.0000 
19    H1      -0.3305    2.2088    4.4170 H       1  LIG   0.0445   0.0000 
20    H2       0.2973    3.4023    3.2545 H       1  LIG   0.0503   0.0000 
21    H3      -1.3796    2.8818    3.1606 H       1  LIG   0.0602   0.0000 
22    H4      -0.7743    0.6364    2.5416 H       1  LIG   0.0851   0.0000 
23    H5       1.2206   -0.0679    3.4557 H       1  LIG   0.0722   0.0000 
24    H6       2.5540    2.5275    2.6293 H       1  LIG   0.0598   0.0000 
25    H7       2.1352    2.0351    4.2631 H       1  LIG   0.0528   0.0000 
26    H8       4.5561    1.7381    3.3851 H       1  LIG   0.0549   0.0000 
27    H9       3.8565    0.5307    4.4289 H       1  LIG   0.0460   0.0000 
28    H10      6.2347   -0.2564    2.9646 H       1  LIG   0.1333   0.1500 
29    H11      7.2153   -0.0733    0.7758 H       1  LIG   0.1540   0.1500 
30    H12      1.3095   -0.7796    1.1814 H       1  LIG   0.0693   0.0000 
31    H13      3.5497   -0.4153   -2.2144 H       1  LIG   0.0658   0.0000 
32    H14      2.0498   -0.2243   -1.3556 H       1  LIG   0.0514   0.0000 
33    H15      3.0019    1.2187   -1.7924 H       1  LIG   0.0688   0.0000 
34    H16      3.9502   -2.3467    2.2177 H       1  LIG   0.0510   0.0000 
35    H17      4.3333   -1.7774    3.8450 H       1  LIG   0.0433   0.0000 
36    H18      2.6892   -1.6526    3.2328 H       1  LIG   0.0384   0.0000 
@<TRIPOS>BOND
1     1     2     1
2     1     19    1
3     1     20    1
4     1     21    1
5     2     15    1
6     2     3     1
7     2     22    1
8     3     13    1
9     3     4     1
10    3     23    1
11    4     5     1
12    4     24    1
13    4     25    1
14    5     6     1
15    5     26    1
16    5     27    1
17    6     12    1
18    6     7     1
19    6     18    1
20    7     8     2
21    7     28    1
22    8     9     1
23    8     29    1
24    9     10    2
25    9     11    1
26    11    12    2
27    11    17    1
28    12    13    1
29    13    14    1
30    13    30    1
31    14    15    1
32    15    16    2
33    17    31    1
34    17    32    1
35    17    33    1
36    18    34    1
37    18    35    1
38    18    36    1
@<TRIPOS>SUBSTRUCTURE
1   LIG    1    
 
########## Number      : 107
########## Name        : ZINC00000710
########## Description : AM1BCC_CHARGES =   0.0002 ORIGINAL_CHARGES =  -0.0000

@<TRIPOS>MOLECULE
ZINC00000710
23    25    1     0     0    
SMALL
USER_CHARGES
****
****
@<TRIPOS>ATOM
1     C1       3.6044   -7.7644    1.0161 C.ar    1  LIG  -0.0750  -0.1500 
2     C2       2.5976   -6.9696    1.5667 C.ar    1  LIG  -0.1478  -0.1500 
3     C3       2.1597   -5.8357    0.8843 C.ar    1  LIG   0.1424   0.0825 
4     C4       2.7107   -5.5135   -0.3680 C.ar    1  LIG  -0.1998   0.0862 
5     C5       3.7134   -6.3093   -0.9254 C.ar    1  LIG  -0.0368  -0.1500 
6     C6       4.1585   -7.4299   -0.2224 C.ar    1  LIG  -0.0199   0.1770 
7     Cl1      5.3971   -8.4206   -0.8949 Cl      1  LIG  -0.0792  -0.1770 
8     C7       2.1637   -4.3566   -1.1165 C.2     1  LIG   0.6727   0.5438 
9     O1       2.4380   -4.1620   -2.2922 O.2     1  LIG  -0.5395  -0.5700 
10    N1       1.3233   -3.6272   -0.3483 N.am    1  LIG  -0.2543  -0.3246 
11    C8       1.1901   -3.7315    1.0712 C.3     1  LIG   0.2282   0.5801 
12    O2       1.1506   -5.1033    1.4699 O.3     1  LIG  -0.3315  -0.3625 
13    C9      -0.1291   -3.0540    1.3389 C.3     1  LIG  -0.1130   0.0000 
14    C10     -0.0985   -1.9707    0.2767 C.3     1  LIG   0.1017   0.2800 
15    O3       0.6070   -2.5292   -0.8498 O.3     1  LIG  -0.2359  -0.3155 
16    H1       3.9459   -8.6422    1.5587 H       1  LIG   0.1553   0.1500 
17    H2       2.1653   -7.2359    2.5274 H       1  LIG   0.1595   0.1500 
18    H3       4.1379   -6.0666   -1.8960 H       1  LIG   0.1737   0.1500 
19    H4       1.9987   -3.2157    1.6136 H       1  LIG   0.0974   0.0000 
20    H5      -0.9624   -3.7441    1.1579 H       1  LIG   0.0882   0.0000 
21    H6      -0.2308   -2.6675    2.3564 H       1  LIG   0.0767   0.0000 
22    H7      -1.1022   -1.6682   -0.0343 H       1  LIG   0.0673   0.0000 
23    H8       0.4529   -1.0877    0.6174 H       1  LIG   0.0698   0.0000 
@<TRIPOS>BOND
1     1     6     ar
2     1     2     ar
3     1     16    1
4     2     3     ar
5     2     17    1
6     3     12    1
7     3     4     ar
8     4     5     ar
9     4     8     1
10    5     6     ar
11    5     18    1
12    6     7     1
13    8     9     2
14    8     10    am
15    10    15    1
16    10    11    1
17    11    12    1
18    11    13    1
19    11    19    1
20    13    14    1
21    13    20    1
22    13    21    1
23    14    15    1
24    14    22    1
25    14    23    1
@<TRIPOS>SUBSTRUCTURE
1   LIG    1    
 
########## Number      : 108
########## Name        : ZINC00000736
########## Description : AM1BCC_CHARGES =   1.0000 ORIGINAL_CHARGES =   1.0000

@<TRIPOS>MOLECULE
ZINC00000736
48    50    1     0     0    
SMALL
USER_CHARGES
****
****
@<TRIPOS>ATOM
1     C1       1.2461    2.2424    1.1599 C.3     1  LIG  -0.1265   0.0000 
2     C2       2.7082    1.8989    0.9052 C.3     1  LIG   0.0350   0.2556 
3     N1       3.0329    0.5213    1.2494 N.pl3   1  LIG  -0.0619   0.0476 
4     C3       2.6247   -0.5354    0.4404 C.ar    1  LIG  -0.0338  -0.1516 
5     C4       1.9965   -0.5484   -0.8192 C.ar    1  LIG  -0.1459  -0.1500 
6     C5       1.6603   -1.7815   -1.3843 C.ar    1  LIG  -0.0938  -0.1500 
7     C6       1.9351   -2.9687   -0.7169 C.ar    1  LIG  -0.1451  -0.1500 
8     C7       2.5593   -2.9493    0.5333 C.ar    1  LIG  -0.0760  -0.1500 
9     C8       2.9142   -1.7145    1.1191 C.ar    1  LIG  -0.0984   0.0000 
10    C9       3.5549   -1.3501    2.3354 C.2     1  LIG  -0.0952  -0.1810 
11    C10      3.7126    0.0369    2.3634 C.2     1  LIG  -0.0998  -0.3316 
12    C11      4.4716    0.8460    3.4474 C.3     1  LIG   0.1283   0.4100 
13    S1       5.3820   -0.2721    4.6027 S.3     1  LIG  -0.3341  -0.4600 
14    C12      4.1993   -1.6404    4.7411 C.3     1  LIG   0.0039   0.2300 
15    C13      4.0281   -2.3032    3.3840 C.3     1  LIG  -0.0172   0.1810 
16    C14      5.5368    1.7464    2.7745 C.3     1  LIG  -0.0941   0.0000 
17    C15      3.4388    1.7114    4.2411 C.3     1  LIG  -0.1014   0.0000 
18    C16      4.0342    2.6103    5.3328 C.3     1  LIG   0.0861   0.5030 
19    C17      3.4395    3.8627    7.4103 C.3     1  LIG   0.0839   0.5030 
20    C18      2.2507    4.4105    5.3042 C.3     1  LIG   0.0799   0.5030 
21    H1       1.0641    3.2989    0.9394 H       1  LIG   0.0508   0.0000 
22    H2       0.5747    1.6494    0.5315 H       1  LIG   0.0684   0.0000 
23    H3       0.9689    2.0579    2.2027 H       1  LIG   0.0219   0.0000 
24    H4       2.9645    2.0477   -0.1497 H       1  LIG   0.0767   0.0000 
25    H5       3.3335    2.5826    1.4684 H       1  LIG   0.0442   0.0000 
26    H6       1.7687    0.3702   -1.3504 H       1  LIG   0.1378   0.1500 
27    H7       1.1746   -1.8101   -2.3563 H       1  LIG   0.1425   0.1500 
28    H8       1.6655   -3.9192   -1.1690 H       1  LIG   0.1436   0.1500 
29    H9       2.7734   -3.8851    1.0422 H       1  LIG   0.1402   0.1500 
30    H10      4.5904   -2.3648    5.4625 H       1  LIG   0.0991   0.0000 
31    H11      3.2479   -1.2663    5.1334 H       1  LIG   0.0597   0.0000 
32    H12      3.3040   -3.1205    3.4893 H       1  LIG   0.0736   0.0000 
33    H13      4.9715   -2.7593    3.0571 H       1  LIG   0.0807   0.0000 
34    H14      5.1166    2.6053    2.2505 H       1  LIG   0.0369   0.0000 
35    H15      6.2342    2.1661    3.5102 H       1  LIG   0.0515   0.0000 
36    H16      6.1313    1.1811    2.0459 H       1  LIG   0.0923   0.0000 
37    H17      2.8930    2.3514    3.5467 H       1  LIG   0.0680   0.0000 
38    H18      2.6793    1.0550    4.6879 H       1  LIG   0.0723   0.0000 
39    H19      4.5805    2.0186    6.0724 H       1  LIG   0.1373   0.0000 
40    H20      4.6973    3.3808    4.9266 H       1  LIG   0.1039   0.0000 
41    H21      2.5979    4.3140    7.9425 H       1  LIG   0.1029   0.0000 
42    H22      3.8346    3.0246    7.9904 H       1  LIG   0.1088   0.0000 
43    H23      4.2181    4.6022    7.2049 H       1  LIG   0.1060   0.0000 
44    H24      1.5030    4.8831    5.9471 H       1  LIG   0.1029   0.0000 
45    H25      3.0045    5.1353    4.9861 H       1  LIG   0.1048   0.0000 
46    H26      1.7501    3.9569    4.4469 H       1  LIG   0.1045   0.0000 
47    N2       2.9306    3.3253    6.0967 N.4     1  LIG  -0.6757  -0.9590 
48    H27      2.2138    2.6253    6.3313 H       1  LIG   0.4505   0.4500 
@<TRIPOS>BOND
1     1     2     1
2     1     21    1
3     1     22    1
4     1     23    1
5     2     3     1
6     2     24    1
7     2     25    1
8     3     11    1
9     3     4     1
10    4     9     ar
11    4     5     ar
12    5     6     ar
13    5     26    1
14    6     7     ar
15    6     27    1
16    7     8     ar
17    7     28    1
18    8     9     ar
19    8     29    1
20    9     10    1
21    10    15    1
22    10    11    2
23    11    12    1
24    12    13    1
25    12    16    1
26    12    17    1
27    13    14    1
28    14    15    1
29    14    30    1
30    14    31    1
31    15    32    1
32    15    33    1
33    16    34    1
34    16    35    1
35    16    36    1
36    17    18    1
37    17    37    1
38    17    38    1
39    18    39    1
40    18    40    1
41    18    47    1
42    19    41    1
43    19    42    1
44    19    43    1
45    19    47    1
46    20    44    1
47    20    45    1
48    20    46    1
49    20    47    1
50    47    48    1
@<TRIPOS>SUBSTRUCTURE
1   LIG    1    
 
########## Number      : 109
########## Name        : ZINC00000741
########## Description : AM1BCC_CHARGES =   0.9998 ORIGINAL_CHARGES =   1.0000

@<TRIPOS>MOLECULE
ZINC00000741
27    28    1     0     0    
SMALL
USER_CHARGES
****
****
@<TRIPOS>ATOM
1     C1       5.9404   -4.8616    0.2504 C.3     1  LIG  -0.1378   0.0000 
2     C2       4.4329   -5.0640    0.3962 C.3     1  LIG   0.1278   0.5030 
3     C3       3.8711   -5.8188   -0.8188 C.3     1  LIG  -0.0527   0.1435 
4     C4       2.4116   -6.1834   -0.6761 C.ar    1  LIG  -0.1681  -0.1435 
5     C5       2.0216   -7.2159    0.2071 C.ar    1  LIG  -0.1075  -0.1500 
6     C6       0.6761   -7.5615    0.3625 C.ar    1  LIG  -0.1052  -0.1500 
7     C7      -0.2548   -6.8616   -0.3745 C.ar    1  LIG   0.0898   0.0825 
8     C8       0.1139   -5.8567   -1.2372 C.ar    1  LIG   0.0739   0.0825 
9     C9       1.4344   -5.4942   -1.4114 C.ar    1  LIG  -0.1547  -0.1500 
10    O1      -0.9551   -5.2952   -1.8646 O.3     1  LIG  -0.3241  -0.3625 
11    C10     -2.0385   -6.0642   -1.3027 C.3     1  LIG   0.3198   0.5600 
12    O2      -1.6010   -7.0575   -0.3529 O.3     1  LIG  -0.3121  -0.3625 
13    H1       2.7737   -3.8201    0.6506 H       1  LIG   0.4736   0.4500 
14    H2       4.1658   -3.1920    1.2792 H       1  LIG   0.4553   0.4500 
15    H3       6.4560   -5.8259    0.1895 H       1  LIG   0.1042   0.0000 
16    H4       6.1833   -4.2909   -0.6528 H       1  LIG   0.0713   0.0000 
17    H5       6.3462   -4.3199    1.1117 H       1  LIG   0.0691   0.0000 
18    H6       4.2593   -5.6313    1.3243 H       1  LIG   0.1109   0.0000 
19    H7       4.0207   -5.2314   -1.7347 H       1  LIG   0.0801   0.0000 
20    H8       4.4360   -6.7483   -0.9709 H       1  LIG   0.1079   0.0000 
21    H9       2.7731   -7.7579    0.7773 H       1  LIG   0.1478   0.1500 
22    H10      0.3795   -8.3544    1.0399 H       1  LIG   0.1798   0.1500 
23    H11      1.7002   -4.6984   -2.0992 H       1  LIG   0.1533   0.1500 
24    H12     -2.7311   -5.3792   -0.8002 H       1  LIG   0.0942   0.0000 
25    H13     -2.5709   -6.5680   -2.1176 H       1  LIG   0.0971   0.0000 
26    N1       3.7872   -3.7371    0.4930 N.4     1  LIG  -0.8460  -0.8530 
27    H14      3.9211   -3.1777   -0.3602 H       1  LIG   0.4521   0.4500 
@<TRIPOS>BOND
1     1     2     1
2     1     15    1
3     1     16    1
4     1     17    1
5     2     3     1
6     2     18    1
7     2     26    1
8     3     4     1
9     3     19    1
10    3     20    1
11    4     9     ar
12    4     5     ar
13    5     6     ar
14    5     21    1
15    6     7     ar
16    6     22    1
17    7     12    1
18    7     8     ar
19    8     9     ar
20    8     10    1
21    9     23    1
22    10    11    1
23    11    12    1
24    11    24    1
25    11    25    1
26    13    26    1
27    14    26    1
28    26    27    1
@<TRIPOS>SUBSTRUCTURE
1   LIG    1    
 
########## Number      : 110
########## Name        : ZINC00000749
########## Description : AM1BCC_CHARGES =   0.0002 ORIGINAL_CHARGES =   0.0000

@<TRIPOS>MOLECULE
ZINC00000749
33    35    1     0     0    
SMALL
USER_CHARGES
****
****
@<TRIPOS>ATOM
1     C1      -0.6349   -2.7410   -4.2660 C.ar    1  LIG  -0.0927  -0.1500 
2     C2      -0.6635   -3.0013   -5.6325 C.ar    1  LIG  -0.1320  -0.1500 
3     C3       0.3383   -3.7771   -6.2132 C.ar    1  LIG  -0.0636  -0.1500 
4     C4       1.3744   -4.2935   -5.4228 C.ar    1  LIG  -0.1312   0.0862 
5     C5       1.4205   -4.0353   -4.0502 C.ar    1  LIG  -0.0448  -0.1435 
6     C6       0.3988   -3.2531   -3.4810 C.ar    1  LIG  -0.1314  -0.1500 
7     C7       2.5451   -4.5379   -3.1591 C.3     1  LIG  -0.1641   0.2655 
8     C8       3.4325   -5.5662   -3.8304 C.2     1  LIG   0.7196   0.5690 
9     O1       4.2568   -6.2069   -3.1738 O.2     1  LIG  -0.6030  -0.5700 
10    N1       3.3203   -5.7227   -5.1961 N.am    1  LIG  -0.5822  -0.4900 
11    C9       2.4060   -5.1357   -6.0529 C.2     1  LIG   0.7251   0.5438 
12    O2       2.4235   -5.3150   -7.2665 O.2     1  LIG  -0.5958  -0.5700 
13    C10      3.4115   -3.3552   -2.7164 C.2     1  LIG   0.6824   0.5690 
14    O3       3.9912   -2.6549   -3.5430 O.2     1  LIG  -0.5594  -0.5700 
15    N2       3.4409   -3.2171   -1.3336 N.am    1  LIG  -0.4599  -0.5470 
16    C11      4.1228   -2.2307   -0.5825 C.ar    1  LIG   0.0657   0.1170 
17    C12      4.8841   -1.1996   -1.1419 C.ar    1  LIG  -0.1448  -0.1500 
18    C13      5.5244   -0.2653   -0.3203 C.ar    1  LIG  -0.0979  -0.1500 
19    C14      5.4056   -0.3576    1.0644 C.ar    1  LIG  -0.0080   0.1770 
20    C15      4.6508   -1.3772    1.6367 C.ar    1  LIG  -0.0977  -0.1500 
21    C16      4.0126   -2.3086    0.8143 C.ar    1  LIG  -0.1729  -0.1500 
22    Cl1      6.1947    0.7940    2.0714 Cl      1  LIG  -0.0916  -0.1770 
23    H1       3.9811   -6.3627   -5.6256 H       1  LIG   0.3467   0.3700 
24    H2       2.9247   -3.8975   -0.7821 H       1  LIG   0.3212   0.3700 
25    H3      -1.4147   -2.1372   -3.8108 H       1  LIG   0.1431   0.1500 
26    H4      -1.4666   -2.6027   -6.2457 H       1  LIG   0.1461   0.1500 
27    H5       0.2948   -3.9752   -7.2812 H       1  LIG   0.1660   0.1500 
28    H6       0.4056   -3.0324   -2.4157 H       1  LIG   0.1407   0.1500 
29    H7       2.0318   -5.0108   -2.3054 H       1  LIG   0.1027   0.0000 
30    H8       5.0050   -1.0844   -2.2130 H       1  LIG   0.1785   0.1500 
31    H9       6.1111    0.5281   -0.7765 H       1  LIG   0.1522   0.1500 
32    H10      4.5502   -1.4599    2.7155 H       1  LIG   0.1488   0.1500 
33    H11      3.4274   -3.0983    1.2808 H       1  LIG   0.1344   0.1500 
@<TRIPOS>BOND
1     1     6     ar
2     1     2     ar
3     1     25    1
4     2     3     ar
5     2     26    1
6     3     4     ar
7     3     27    1
8     4     11    1
9     4     5     ar
10    5     6     ar
11    5     7     1
12    6     28    1
13    7     8     1
14    7     13    1
15    7     29    1
16    8     9     2
17    8     10    am
18    10    11    am
19    10    23    1
20    11    12    2
21    13    14    2
22    13    15    am
23    15    16    1
24    15    24    1
25    16    21    ar
26    16    17    ar
27    17    18    ar
28    17    30    1
29    18    19    ar
30    18    31    1
31    19    20    ar
32    19    22    1
33    20    21    ar
34    20    32    1
35    21    33    1
@<TRIPOS>SUBSTRUCTURE
1   LIG    1    
 
########## Number      : 111
########## Name        : ZINC00000758
########## Description : AM1BCC_CHARGES =   1.0000 ORIGINAL_CHARGES =   1.0000

@<TRIPOS>MOLECULE
ZINC00000758
45    49    1     0     0    
SMALL
USER_CHARGES
****
****
@<TRIPOS>ATOM
1     C1       3.6443   -7.5930    1.2391 C.3     1  LIG   0.0843   0.5030 
2     C2       2.7994   -6.7721    3.4555 C.3     1  LIG   0.1249   0.5030 
3     C3       1.8335   -5.8024    4.1793 C.3     1  LIG  -0.0795   0.0000 
4     C4       0.5093   -5.5635    3.3913 C.3     1  LIG  -0.0064   0.2817 
5     C5       0.6197   -4.2835    2.6898 C.ar    1  LIG  -0.1425  -0.1435 
6     C6       0.9373   -4.1005    1.3699 C.ar    1  LIG  -0.1206  -0.1435 
7     C7       0.9015   -2.7793    0.9475 C.ar    1  LIG  -0.0861  -0.1500 
8     C8       0.5153   -1.7391    1.8500 C.ar    1  LIG  -0.1709  -0.1500 
9     C9       0.0932   -1.9984    3.1762 C.ar    1  LIG   0.1595   0.0825 
10    C10      0.1208   -3.3134    3.5706 C.ar    1  LIG   0.0781   0.0825 
11    O1      -0.4276   -3.9169    4.7368 O.3     1  LIG  -0.2522  -0.3625 
12    C11     -0.7302   -5.2219    4.1672 C.3     1  LIG   0.1686   0.4182 
13    C12     -1.0917   -6.3631    5.0546 C.2     1  LIG   0.1811  -0.0615 
14    C13     -1.0058   -7.5778    4.4331 C.2     1  LIG  -0.3227  -0.1500 
15    C14     -0.4500   -7.7286    3.0518 C.2     1  LIG   0.0303  -0.1500 
16    C15      0.3386   -6.7553    2.5437 C.2     1  LIG  -0.2576  -0.2764 
17    C16      1.3247   -6.6707    1.3936 C.3     1  LIG   0.2346   0.6412 
18    C17      1.0983   -5.3519    0.5303 C.3     1  LIG  -0.0389   0.1435 
19    O2      -1.5277   -6.0578    6.3136 O.3     1  LIG  -0.2772  -0.3567 
20    C18     -1.9088   -7.1556    7.1335 C.3     1  LIG   0.1011   0.2800 
21    O3      -0.3751   -1.0899    4.0749 O.3     1  LIG  -0.2950  -0.3625 
22    C19     -0.3930    0.2689    3.6551 C.3     1  LIG   0.1056   0.2800 
23    H1       4.6611   -7.4718    1.6213 H       1  LIG   0.0982   0.0000 
24    H2       3.2671   -8.5987    1.4429 H       1  LIG   0.1001   0.0000 
25    H3       3.6168   -7.3685    0.1696 H       1  LIG   0.0977   0.0000 
26    H4       2.5482   -7.8181    3.6698 H       1  LIG   0.0977   0.0000 
27    H5       3.8312   -6.5930    3.7769 H       1  LIG   0.0929   0.0000 
28    H6       1.6348   -6.2209    5.1741 H       1  LIG   0.0985   0.0000 
29    H7       2.3691   -4.8607    4.3628 H       1  LIG   0.0883   0.0000 
30    H8       1.1320   -2.5240   -0.0838 H       1  LIG   0.1493   0.1500 
31    H9       0.5070   -0.7265    1.4525 H       1  LIG   0.1583   0.1500 
32    H10     -1.6076   -5.0879    3.4871 H       1  LIG   0.0982   0.0000 
33    H11     -1.2857   -8.5024    4.9263 H       1  LIG   0.1630   0.1500 
34    H12     -0.5598   -8.6916    2.5660 H       1  LIG   0.1483   0.1500 
35    H13      1.1979   -7.5403    0.7282 H       1  LIG   0.1004   0.0000 
36    H14      0.1793   -5.4802   -0.0557 H       1  LIG   0.1058   0.0000 
37    H15      1.9294   -5.2210   -0.1725 H       1  LIG   0.0633   0.0000 
38    H16     -2.2164   -6.7591    8.1057 H       1  LIG   0.0951   0.0000 
39    H17     -2.7618   -7.6895    6.7019 H       1  LIG   0.0533   0.0000 
40    H18     -1.0653   -7.8344    7.2974 H       1  LIG   0.0453   0.0000 
41    H19     -0.7710    0.8708    4.4872 H       1  LIG   0.0894   0.0000 
42    H20      0.6159    0.6234    3.4191 H       1  LIG   0.0419   0.0000 
43    H21     -1.0710    0.4105    2.8070 H       1  LIG   0.0435   0.0000 
44    N1       2.7631   -6.5937    1.9464 N.4     1  LIG  -0.6980  -0.9590 
45    H22      3.1892   -5.6757    1.7273 H       1  LIG   0.4510   0.4500 
@<TRIPOS>BOND
1     1     23    1
2     1     24    1
3     1     25    1
4     1     44    1
5     2     3     1
6     2     26    1
7     2     27    1
8     2     44    1
9     3     4     1
10    3     28    1
11    3     29    1
12    4     12    1
13    4     16    1
14    4     5     1
15    5     10    ar
16    5     6     ar
17    6     18    1
18    6     7     ar
19    7     8     ar
20    7     30    1
21    8     9     ar
22    8     31    1
23    9     10    ar
24    9     21    1
25    10    11    1
26    11    12    1
27    12    13    1
28    12    32    1
29    13    14    2
30    13    19    1
31    14    15    1
32    14    33    1
33    15    16    2
34    15    34    1
35    16    17    1
36    17    18    1
37    17    35    1
38    17    44    1
39    18    36    1
40    18    37    1
41    19    20    1
42    20    38    1
43    20    39    1
44    20    40    1
45    21    22    1
46    22    41    1
47    22    42    1
48    22    43    1
49    44    45    1
@<TRIPOS>SUBSTRUCTURE
1   LIG    1    
 
########## Number      : 112
########## Name        : ZINC00000760
########## Description : AM1BCC_CHARGES =   0.9998 ORIGINAL_CHARGES =   1.0000

@<TRIPOS>MOLECULE
ZINC00000760
46    48    1     0     0    
SMALL
USER_CHARGES
****
****
@<TRIPOS>ATOM
1     C1       5.5345  -10.4993   -2.3961 C.3     1  LIG   0.0835   0.5030 
2     C2       6.8926  -10.8813   -0.3572 C.3     1  LIG   0.0821   0.5030 
3     C3       5.5952   -8.7280   -0.6395 C.3     1  LIG   0.0825   0.5030 
4     C4       5.2818   -8.4602    0.8330 C.3     1  LIG   0.0753   0.3001 
5     N1       5.2215   -7.0277    1.1634 N.am    1  LIG  -0.4107  -0.4771 
6     C5       4.1682   -6.2693    0.5801 C.ar    1  LIG   0.0055   0.1170 
7     C6       4.4461   -5.5528   -0.5915 C.ar    1  LIG  -0.1163  -0.1500 
8     C7       3.4548   -4.7770   -1.1880 C.ar    1  LIG  -0.1091  -0.1500 
9     C8       2.1858   -4.7126   -0.6184 C.ar    1  LIG  -0.1172  -0.1500 
10    C9       1.9039   -5.4212    0.5519 C.ar    1  LIG  -0.0775  -0.1500 
11    C10      2.8916   -6.1973    1.1754 C.ar    1  LIG  -0.0464   0.1015 
12    S1       2.3978   -7.1286    2.6300 S.3     1  LIG  -0.2310  -0.3315 
13    C11      3.6423   -6.5998    3.8665 C.3     1  LIG   0.0670   0.3735 
14    C12      5.0278   -7.2396    3.5930 C.3     1  LIG  -0.1694   0.0610 
15    C13      5.6577   -6.5554    2.3988 C.2     1  LIG   0.6937   0.5690 
16    O1       6.3492   -5.5453    2.5335 O.2     1  LIG  -0.4946  -0.5700 
17    C14      3.1480   -6.9462    5.2603 C.ar    1  LIG  -0.0980  -0.1435 
18    C15      2.6440   -5.9256    6.0835 C.ar    1  LIG  -0.1011  -0.1500 
19    C16      2.1697   -6.2097    7.3657 C.ar    1  LIG  -0.1211  -0.1500 
20    C17      2.1862   -7.5181    7.8420 C.ar    1  LIG  -0.1063  -0.1500 
21    C18      2.6734   -8.5437    7.0355 C.ar    1  LIG  -0.1250  -0.1500 
22    C19      3.1485   -8.2617    5.7527 C.ar    1  LIG  -0.1190  -0.1500 
23    H1       4.5835  -10.0837   -2.7395 H       1  LIG   0.1070   0.0000 
24    H2       6.3779  -10.0344   -2.9138 H       1  LIG   0.1080   0.0000 
25    H3       5.5347  -11.5834   -2.5372 H       1  LIG   0.1043   0.0000 
26    H4       6.8722  -10.7893    0.7302 H       1  LIG   0.1046   0.0000 
27    H5       6.8620  -11.9399   -0.6295 H       1  LIG   0.1032   0.0000 
28    H6       7.7763  -10.3959   -0.7796 H       1  LIG   0.1088   0.0000 
29    H7       6.5483   -8.2839   -0.9478 H       1  LIG   0.1179   0.0000 
30    H8       4.7982   -8.3291   -1.2753 H       1  LIG   0.1130   0.0000 
31    H9       4.3355   -8.9344    1.1172 H       1  LIG   0.0632   0.0000 
32    H10      6.0601   -8.8994    1.4663 H       1  LIG   0.0604   0.0000 
33    H11      5.4360   -5.5874   -1.0394 H       1  LIG   0.1493   0.1500 
34    H12      3.6718   -4.2211   -2.0958 H       1  LIG   0.1512   0.1500 
35    H13      1.4114   -4.1108   -1.0861 H       1  LIG   0.1549   0.1500 
36    H14      0.9004   -5.3574    0.9680 H       1  LIG   0.1637   0.1500 
37    H15      3.8260   -5.5091    3.8239 H       1  LIG   0.0987   0.0000 
38    H16      5.7014   -7.0816    4.4455 H       1  LIG   0.1080   0.0000 
39    H17      4.9651   -8.3224    3.4466 H       1  LIG   0.0687   0.0000 
40    H18      2.6169   -4.8971    5.7309 H       1  LIG   0.1398   0.1500 
41    H19      1.7858   -5.4089    7.9913 H       1  LIG   0.1466   0.1500 
42    H20      1.8162   -7.7389    8.8390 H       1  LIG   0.1456   0.1500 
43    H21      2.6810   -9.5659    7.4034 H       1  LIG   0.1402   0.1500 
44    H22      3.5116   -9.0838    5.1415 H       1  LIG   0.1225   0.1500 
45    N2       5.6636  -10.2179   -0.9204 N.4     1  LIG  -0.6768  -0.9590 
46    H23      4.8476  -10.6570   -0.4726 H       1  LIG   0.4501   0.4500 
@<TRIPOS>BOND
1     1     23    1
2     1     24    1
3     1     25    1
4     1     45    1
5     2     26    1
6     2     27    1
7     2     28    1
8     2     45    1
9     3     4     1
10    3     29    1
11    3     30    1
12    3     45    1
13    4     5     1
14    4     31    1
15    4     32    1
16    5     15    am
17    5     6     1
18    6     11    ar
19    6     7     ar
20    7     8     ar
21    7     33    1
22    8     9     ar
23    8     34    1
24    9     10    ar
25    9     35    1
26    10    11    ar
27    10    36    1
28    11    12    1
29    12    13    1
30    13    14    1
31    13    17    1
32    13    37    1
33    14    15    1
34    14    38    1
35    14    39    1
36    15    16    2
37    17    22    ar
38    17    18    ar
39    18    19    ar
40    18    40    1
41    19    20    ar
42    19    41    1
43    20    21    ar
44    20    42    1
45    21    22    ar
46    21    43    1
47    22    44    1
48    45    46    1
@<TRIPOS>SUBSTRUCTURE
1   LIG    1    
 
########## Number      : 113
########## Name        : ZINC00000762
########## Description : AM1BCC_CHARGES =   0.0001 ORIGINAL_CHARGES =   0.0000

@<TRIPOS>MOLECULE
ZINC00000762
31    31    1     0     0    
SMALL
USER_CHARGES
****
****
@<TRIPOS>ATOM
1     C1       3.6782   -8.7271    0.6467 C.3     1  LIG  -0.0926   0.0000 
2     C2       3.1680   -7.3268    0.9754 C.3     1  LIG  -0.0863   0.0000 
3     C3       3.2313   -6.3512   -0.2206 C.3     1  LIG  -0.0513   0.0000 
4     C4       2.4012   -6.8846   -1.4106 C.3     1  LIG  -0.1076   0.0000 
5     C5       2.7579   -4.8874    0.1805 C.3     1  LIG  -0.1676   0.1220 
6     C6       3.2241   -3.9780   -0.9659 C.2     1  LIG   0.7000   0.5690 
7     O1       4.4171   -3.7764   -1.2006 O.2     1  LIG  -0.5830  -0.5700 
8     N1       2.2368   -3.4192   -1.7510 N.am    1  LIG  -0.5574  -0.4900 
9     C7       0.8823   -3.5359   -1.5724 C.2     1  LIG   0.5559   0.5000 
10    S1      -0.2008   -2.8168   -2.6204 S.2     1  LIG  -0.4509  -0.3800 
11    N2       0.4569   -4.2542   -0.4844 N.am    1  LIG  -0.5578  -0.4900 
12    C8       1.2509   -4.8690    0.4623 C.2     1  LIG   0.7043   0.5690 
13    O2       0.7570   -5.3771    1.4696 O.2     1  LIG  -0.5832  -0.5700 
14    C9       3.4844   -4.3831    1.4664 C.3     1  LIG  -0.0733   0.0000 
15    C10      3.2146   -2.9182    1.8137 C.3     1  LIG  -0.1080   0.0000 
16    H1       2.5501   -2.8538   -2.5341 H       1  LIG   0.3654   0.3700 
17    H2      -0.5453   -4.2951   -0.3259 H       1  LIG   0.3649   0.3700 
18    H3       3.7381   -9.3266    1.5611 H       1  LIG   0.0404   0.0000 
19    H4       3.0076   -9.2494   -0.0416 H       1  LIG   0.0365   0.0000 
20    H5       4.6774   -8.6883    0.2020 H       1  LIG   0.0350   0.0000 
21    H6       2.1468   -7.4198    1.3572 H       1  LIG   0.0686   0.0000 
22    H7       3.7920   -6.9560    1.7944 H       1  LIG   0.0454   0.0000 
23    H8       4.2723   -6.3229   -0.5935 H       1  LIG   0.0793   0.0000 
24    H9       2.3922   -6.1827   -2.2491 H       1  LIG   0.0360   0.0000 
25    H10      2.8301   -7.8150   -1.7969 H       1  LIG   0.0557   0.0000 
26    H11      1.3661   -7.0929   -1.1216 H       1  LIG   0.0448   0.0000 
27    H12      3.1758   -4.9720    2.3381 H       1  LIG   0.0774   0.0000 
28    H13      4.5684   -4.5186    1.3614 H       1  LIG   0.0737   0.0000 
29    H14      3.7255   -2.6596    2.7472 H       1  LIG   0.0530   0.0000 
30    H15      3.5852   -2.2410    1.0389 H       1  LIG   0.0437   0.0000 
31    H16      2.1465   -2.7294    1.9565 H       1  LIG   0.0391   0.0000 
@<TRIPOS>BOND
1     1     2     1
2     1     18    1
3     1     19    1
4     1     20    1
5     2     3     1
6     2     21    1
7     2     22    1
8     3     4     1
9     3     5     1
10    3     23    1
11    4     24    1
12    4     25    1
13    4     26    1
14    5     12    1
15    5     6     1
16    5     14    1
17    6     7     2
18    6     8     am
19    8     9     1
20    8     16    1
21    9     10    2
22    9     11    1
23    11    12    am
24    11    17    1
25    12    13    2
26    14    15    1
27    14    27    1
28    14    28    1
29    15    29    1
30    15    30    1
31    15    31    1
@<TRIPOS>SUBSTRUCTURE
1   LIG    1    
 
########## Number      : 114
########## Name        : ZINC00000763
########## Description : AM1BCC_CHARGES =  -0.0001 ORIGINAL_CHARGES =   0.0000

@<TRIPOS>MOLECULE
ZINC00000763
34    34    1     0     0    
SMALL
USER_CHARGES
****
****
@<TRIPOS>ATOM
1     C1       5.6000   -8.9519   -0.7966 C.3     1  LIG  -0.0933   0.0000 
2     C2       4.8055   -8.1011    0.1835 C.3     1  LIG  -0.0778   0.0000 
3     C3       4.4500   -6.7355   -0.4221 C.3     1  LIG  -0.0872   0.0000 
4     C4       3.5957   -5.8659    0.5360 C.3     1  LIG  -0.0394   0.0000 
5     C5       4.5152   -5.2642    1.6201 C.3     1  LIG  -0.1022   0.0000 
6     C6       2.7561   -4.7715   -0.2735 C.3     1  LIG  -0.1506   0.1220 
7     C7       1.5377   -5.5352   -0.8721 C.2     1  LIG   0.6890   0.5690 
8     O1       1.5439   -6.7400   -1.1256 O.2     1  LIG  -0.5828  -0.5700 
9     N1       0.4277   -4.7688   -1.1710 N.am    1  LIG  -0.5574  -0.4900 
10    C8       0.1571   -3.5206   -0.6750 C.2     1  LIG   0.5536   0.5000 
11    S1      -1.2460   -2.7056   -1.0670 S.2     1  LIG  -0.4492  -0.3800 
12    N2       1.0722   -2.9987    0.2031 N.am    1  LIG  -0.5589  -0.4900 
13    C9       2.2711   -3.5747    0.5897 C.2     1  LIG   0.6977   0.5690 
14    O2       2.9253   -3.0579    1.4936 O.2     1  LIG  -0.5808  -0.5700 
15    C10      3.4754   -4.1403   -1.5137 C.3     1  LIG  -0.0694   0.0000 
16    C11      4.7558   -3.3598   -1.2462 C.3     1  LIG  -0.1050   0.0000 
17    H1      -0.3074   -5.2202   -1.7065 H       1  LIG   0.3658   0.3700 
18    H2       0.8202   -2.1307    0.6658 H       1  LIG   0.3661   0.3700 
19    H3       5.8415   -9.9205   -0.3479 H       1  LIG   0.0351   0.0000 
20    H4       5.0275   -9.1352   -1.7115 H       1  LIG   0.0384   0.0000 
21    H5       6.5389   -8.4603   -1.0705 H       1  LIG   0.0326   0.0000 
22    H6       3.8873   -8.6345    0.4554 H       1  LIG   0.0422   0.0000 
23    H7       5.3943   -7.9809    1.0980 H       1  LIG   0.0381   0.0000 
24    H8       5.3775   -6.2160   -0.6873 H       1  LIG   0.0461   0.0000 
25    H9       3.9231   -6.9291   -1.3611 H       1  LIG   0.0707   0.0000 
26    H10      2.8981   -6.5031    1.1115 H       1  LIG   0.0536   0.0000 
27    H11      3.9323   -4.9220    2.4809 H       1  LIG   0.0450   0.0000 
28    H12      5.2045   -6.0139    2.0206 H       1  LIG   0.0460   0.0000 
29    H13      5.1240   -4.4373    1.2501 H       1  LIG   0.0585   0.0000 
30    H14      3.6878   -4.9096   -2.2661 H       1  LIG   0.0758   0.0000 
31    H15      2.7857   -3.4489   -2.0180 H       1  LIG   0.0469   0.0000 
32    H16      5.1020   -2.8954   -2.1761 H       1  LIG   0.0438   0.0000 
33    H17      4.6005   -2.5569   -0.5208 H       1  LIG   0.0651   0.0000 
34    H18      5.5640   -4.0022   -0.8926 H       1  LIG   0.0438   0.0000 
@<TRIPOS>BOND
1     1     2     1
2     1     19    1
3     1     20    1
4     1     21    1
5     2     3     1
6     2     22    1
7     2     23    1
8     3     4     1
9     3     24    1
10    3     25    1
11    4     5     1
12    4     6     1
13    4     26    1
14    5     27    1
15    5     28    1
16    5     29    1
17    6     13    1
18    6     7     1
19    6     15    1
20    7     8     2
21    7     9     am
22    9     10    1
23    9     17    1
24    10    11    2
25    10    12    1
26    12    13    am
27    12    18    1
28    13    14    2
29    15    16    1
30    15    30    1
31    15    31    1
32    16    32    1
33    16    33    1
34    16    34    1
@<TRIPOS>SUBSTRUCTURE
1   LIG    1    
 
########## Number      : 115
########## Name        : ZINC00000764
########## Description : AM1BCC_CHARGES =   0.0001 ORIGINAL_CHARGES =  -0.0000

@<TRIPOS>MOLECULE
ZINC00000764
27    28    1     0     0    
SMALL
USER_CHARGES
****
****
@<TRIPOS>ATOM
1     C1       1.1595   -8.5326   -1.3164 C.3     1  LIG   0.1877   0.3691 
2     N1       2.5238   -8.0668   -1.1042 N.pl3   1  LIG  -0.7013  -0.7882 
3     C2       3.5783   -9.0652   -1.2163 C.3     1  LIG   0.1908   0.3691 
4     C3       2.8292   -6.7240   -0.9946 C.2     1  LIG   0.8192   0.6500 
5     N2       3.9925   -6.1622   -0.8937 N.2     1  LIG  -0.7294  -0.6610 
6     C4       3.7719   -4.8129   -0.8008 C.2     1  LIG   0.6810   0.7200 
7     O1       4.6196   -3.9445   -0.6531 O.2     1  LIG  -0.5006  -0.5700 
8     C5       2.2913   -4.5759   -0.9085 C.3     1  LIG   0.0560   0.4845 
9     O2       1.7494   -5.8789   -0.9883 O.3     1  LIG  -0.4457  -0.4300 
10    C6       1.7299   -3.8216    0.2777 C.ar    1  LIG  -0.0913  -0.1435 
11    C7       1.5890   -4.4332    1.5333 C.ar    1  LIG  -0.1022  -0.1500 
12    C8       1.0853   -3.7170    2.6208 C.ar    1  LIG  -0.1299  -0.1500 
13    C9       0.7218   -2.3808    2.4693 C.ar    1  LIG  -0.1183  -0.1500 
14    C10      0.8639   -1.7587    1.2310 C.ar    1  LIG  -0.1297  -0.1500 
15    C11      1.3672   -2.4731    0.1421 C.ar    1  LIG  -0.1050  -0.1500 
16    H1       0.4935   -8.1376   -0.5421 H       1  LIG   0.0721   0.0000 
17    H2       0.7967   -8.2038   -2.2957 H       1  LIG   0.0366   0.0000 
18    H3       1.0893   -9.6249   -1.2809 H       1  LIG   0.0575   0.0000 
19    H4       4.4669   -8.7726   -0.6469 H       1  LIG   0.0835   0.0000 
20    H5       3.2526  -10.0343   -0.8240 H       1  LIG   0.0529   0.0000 
21    H6       3.8637   -9.1923   -2.2653 H       1  LIG   0.0360   0.0000 
22    H7       2.0870   -4.0020   -1.8246 H       1  LIG   0.1025   0.0000 
23    H8       1.8714   -5.4734    1.6765 H       1  LIG   0.1380   0.1500 
24    H9       0.9789   -4.2023    3.5868 H       1  LIG   0.1348   0.1500 
25    H10      0.3310   -1.8241    3.3160 H       1  LIG   0.1335   0.1500 
26    H11      0.5847   -0.7155    1.1126 H       1  LIG   0.1352   0.1500 
27    H12      1.4752   -1.9664   -0.8140 H       1  LIG   0.1362   0.1500 
@<TRIPOS>BOND
1     1     2     1
2     1     16    1
3     1     17    1
4     1     18    1
5     2     3     1
6     2     4     1
7     3     19    1
8     3     20    1
9     3     21    1
10    4     9     1
11    4     5     2
12    5     6     1
13    6     7     2
14    6     8     1
15    8     9     1
16    8     10    1
17    8     22    1
18    10    15    ar
19    10    11    ar
20    11    12    ar
21    11    23    1
22    12    13    ar
23    12    24    1
24    13    14    ar
25    13    25    1
26    14    15    ar
27    14    26    1
28    15    27    1
@<TRIPOS>SUBSTRUCTURE
1   LIG    1    
 
########## Number      : 116
########## Name        : ZINC00000774
########## Description : AM1BCC_CHARGES =   0.9999 ORIGINAL_CHARGES =   1.0000

@<TRIPOS>MOLECULE
ZINC00000774
33    34    1     0     0    
SMALL
USER_CHARGES
****
****
@<TRIPOS>ATOM
1     C1       5.4254   -4.7167   -2.1935 C.3     1  LIG  -0.1367   0.0000 
2     C2       4.7165   -4.8092   -0.8566 C.3     1  LIG   0.1057   0.5030 
3     C3       2.4126   -5.5317    0.1117 C.3     1  LIG   0.1575   0.7440 
4     C4       3.0886   -6.1699    1.3503 C.3     1  LIG  -0.0968   0.0000 
5     C5       3.4660   -7.6391    1.1485 C.3     1  LIG  -0.0984   0.0000 
6     C6       2.2311   -8.4642    0.8016 C.3     1  LIG  -0.0864   0.0000 
7     C7       1.5031   -7.9187   -0.4166 C.3     1  LIG  -0.1826   0.0610 
8     C8       1.2159   -6.4339   -0.2712 C.2     1  LIG   0.5363   0.4480 
9     O1       0.0914   -6.0020   -0.5262 O.2     1  LIG  -0.4312  -0.5700 
10    C9       1.8911   -4.1206    0.4101 C.2     1  LIG  -0.2542  -0.1400 
11    C10      1.6864   -3.4950    1.6295 C.2     1  LIG  -0.0892  -0.1500 
12    C11      1.1839   -2.1677    1.4998 C.2     1  LIG  -0.1565  -0.1500 
13    C12      1.0112   -1.8068    0.1853 C.2     1  LIG  -0.1233  -0.1100 
14    S1       1.4506   -3.0600   -0.8856 S.3     1  LIG   0.0983  -0.0800 
15    H1       6.3932   -4.2199   -2.0738 H       1  LIG   0.1017   0.0000 
16    H2       5.6047   -5.7110   -2.6157 H       1  LIG   0.0645   0.0000 
17    H3       4.8363   -4.1404   -2.9145 H       1  LIG   0.0680   0.0000 
18    H4       4.5205   -3.8144   -0.4491 H       1  LIG   0.1171   0.0000 
19    H5       5.3073   -5.3974   -0.1498 H       1  LIG   0.1024   0.0000 
20    H6       3.9724   -5.6003    1.6610 H       1  LIG   0.0728   0.0000 
21    H7       2.3994   -6.1360    2.2056 H       1  LIG   0.1052   0.0000 
22    H8       4.2239   -7.7434    0.3646 H       1  LIG   0.0305   0.0000 
23    H9       3.9127   -8.0282    2.0709 H       1  LIG   0.0905   0.0000 
24    H10      2.5197   -9.5062    0.6242 H       1  LIG   0.0821   0.0000 
25    H11      1.5486   -8.4644    1.6609 H       1  LIG   0.0779   0.0000 
26    H12      2.0892   -8.0735   -1.3282 H       1  LIG   0.0594   0.0000 
27    H13      0.5537   -8.4508   -0.5429 H       1  LIG   0.1138   0.0000 
28    H14      1.8848   -3.9570    2.5880 H       1  LIG   0.1654   0.1500 
29    H15      0.9593   -1.5126    2.3319 H       1  LIG   0.1830   0.1500 
30    H16      0.6445   -0.8642   -0.1967 H       1  LIG   0.2007   0.1500 
31    N1       3.4055   -5.5121   -1.0566 N.4     1  LIG  -0.7673  -0.9060 
32    H17      3.6050   -6.4735   -1.3619 H       1  LIG   0.4433   0.4500 
33    H18      2.9214   -5.0733   -1.8535 H       1  LIG   0.4464   0.4500 
@<TRIPOS>BOND
1     1     2     1
2     1     15    1
3     1     16    1
4     1     17    1
5     2     18    1
6     2     19    1
7     2     31    1
8     3     8     1
9     3     4     1
10    3     10    1
11    3     31    1
12    4     5     1
13    4     20    1
14    4     21    1
15    5     6     1
16    5     22    1
17    5     23    1
18    6     7     1
19    6     24    1
20    6     25    1
21    7     8     1
22    7     26    1
23    7     27    1
24    8     9     2
25    10    14    1
26    10    11    2
27    11    12    1
28    11    28    1
29    12    13    2
30    12    29    1
31    13    14    1
32    13    30    1
33    31    32    1
34    31    33    1
@<TRIPOS>SUBSTRUCTURE
1   LIG    1    
 
########## Number      : 117
########## Name        : ZINC00000791
########## Description : AM1BCC_CHARGES =   0.0000 ORIGINAL_CHARGES =   0.0000

@<TRIPOS>MOLECULE
ZINC00000791
28    28    1     0     0    
SMALL
USER_CHARGES
****
****
@<TRIPOS>ATOM
1     C1       4.6882   -6.0740   -1.0372 C.3     1  LIG  -0.0728   0.1435 
2     C2       3.5578   -5.6114   -0.1597 C.ar    1  LIG   0.0363  -0.1435 
3     C3       3.7477   -4.4302    0.5840 C.ar    1  LIG  -0.2117  -0.1500 
4     C4       2.7531   -3.9289    1.4320 C.ar    1  LIG   0.1508   0.0825 
5     C5       1.5381   -4.6196    1.5523 C.ar    1  LIG   0.0783   0.0825 
6     C6       1.3440   -5.7993    0.8259 C.ar    1  LIG  -0.1196  -0.1500 
7     C7       2.3424   -6.3048   -0.0266 C.ar    1  LIG  -0.1406   0.0640 
8     S1       1.9350   -7.8511   -0.8850 S.o     1  LIG   0.3264   0.2425 
9     O1       3.2255   -8.5402   -1.2064 O.2     1  LIG  -0.5162  -0.5000 
10    C8       1.3037   -7.1077   -2.4089 C.3     1  LIG  -0.1263   0.1935 
11    O2       0.6132   -4.0641    2.4019 O.3     1  LIG  -0.3038  -0.3625 
12    C9      -0.6319   -4.7358    2.5463 C.3     1  LIG   0.1101   0.2800 
13    O3       2.8689   -2.7833    2.1802 O.3     1  LIG  -0.3010  -0.3625 
14    C10      4.0875   -2.0568    2.0831 C.3     1  LIG   0.1085   0.2800 
15    H1       5.4545   -5.2984   -1.1468 H       1  LIG   0.0380   0.0000 
16    H2       5.1721   -6.9527   -0.6001 H       1  LIG   0.0878   0.0000 
17    H3       4.3357   -6.3024   -2.0470 H       1  LIG   0.0583   0.0000 
18    H4       4.6967   -3.9102    0.4812 H       1  LIG   0.1442   0.1500 
19    H5       0.4114   -6.3512    0.9115 H       1  LIG   0.1346   0.1500 
20    H6       1.0397   -7.9108   -3.1013 H       1  LIG   0.0838   0.0000 
21    H7       0.4102   -6.5194   -2.1860 H       1  LIG   0.0757   0.0000 
22    H8       2.0637   -6.4726   -2.8691 H       1  LIG   0.0863   0.0000 
23    H9      -1.2419   -4.1597    3.2489 H       1  LIG   0.0707   0.0000 
24    H10     -1.1715   -4.7767    1.5944 H       1  LIG   0.0287   0.0000 
25    H11     -0.4941   -5.7362    2.9694 H       1  LIG   0.0311   0.0000 
26    H12      4.0075   -1.1827    2.7366 H       1  LIG   0.0713   0.0000 
27    H13      4.9339   -2.6566    2.4335 H       1  LIG   0.0359   0.0000 
28    H14      4.2512   -1.6944    1.0629 H       1  LIG   0.0352   0.0000 
@<TRIPOS>BOND
1     1     2     1
2     1     15    1
3     1     16    1
4     1     17    1
5     2     7     ar
6     2     3     ar
7     3     4     ar
8     3     18    1
9     4     5     ar
10    4     13    1
11    5     6     ar
12    5     11    1
13    6     7     ar
14    6     19    1
15    7     8     1
16    8     9     2
17    8     10    1
18    10    20    1
19    10    21    1
20    10    22    1
21    11    12    1
22    12    23    1
23    12    24    1
24    12    25    1
25    13    14    1
26    14    26    1
27    14    27    1
28    14    28    1
@<TRIPOS>SUBSTRUCTURE
1   LIG    1    
 
########## Number      : 118
########## Name        : ZINC00000801
########## Description : AM1BCC_CHARGES =   0.0002 ORIGINAL_CHARGES =   0.0000

@<TRIPOS>MOLECULE
ZINC00000801
54    57    1     0     0    
SMALL
USER_CHARGES
****
****
@<TRIPOS>ATOM
1     C1      -5.5088    7.0407    1.0172 C.3     1  LIG  -0.0918   0.0000 
2     C2      -5.4501    6.7353    2.5257 C.3     1  LIG  -0.0592   0.0000 
3     C3      -6.5341    7.4998    3.2910 C.3     1  LIG  -0.0498   0.1382 
4     C4      -7.9322    7.0039    3.0198 C.2     1  LIG  -0.0289  -0.2764 
5     C5      -8.9710    7.8544    3.0330 C.2     1  LIG  -0.2700  -0.1356 
6     C6     -10.3546    7.3641    2.8259 C.2     1  LIG   0.5692   0.4946 
7     O1     -11.2788    8.1710    2.7413 O.2     1  LIG  -0.5399  -0.5700 
8     C7     -10.5844    5.8781    2.6811 C.3     1  LIG  -0.1820   0.0610 
9     C8      -9.4638    5.0678    3.3228 C.3     1  LIG  -0.0700   0.0000 
10    C9      -8.0906    5.5194    2.7861 C.3     1  LIG  -0.0379   0.1382 
11    C10     -6.9086    4.7804    3.4507 C.3     1  LIG  -0.0524   0.0000 
12    C11     -5.5824    5.1894    2.7661 C.3     1  LIG  -0.0529   0.0000 
13    C12     -4.4187    4.6767    3.6411 C.3     1  LIG  -0.0551   0.0000 
14    C13     -3.0426    4.8085    2.9561 C.3     1  LIG  -0.0775   0.0000 
15    C14     -2.2300    3.6703    3.5528 C.3     1  LIG  -0.0846   0.0000 
16    C15     -3.2302    2.5173    3.5585 C.3     1  LIG   0.1455   0.2800 
17    C16     -4.5627    3.1633    4.0030 C.3     1  LIG  -0.0606   0.0000 
18    C17     -5.7469    2.4916    3.2749 C.3     1  LIG  -0.0714   0.0000 
19    C18     -7.0755    3.2464    3.3742 C.3     1  LIG  -0.0710   0.0000 
20    C19     -4.7868    3.0409    5.5289 C.3     1  LIG  -0.0765   0.0000 
21    O2      -2.7934    1.5159    4.4941 O.3     1  LIG  -0.4368  -0.4300 
22    C20     -3.1031    0.2186    4.2156 C.2     1  LIG   0.6338   0.6590 
23    O3      -3.7138   -0.1917    3.2386 O.2     1  LIG  -0.5444  -0.5700 
24    C21     -2.5792   -0.6639    5.3075 C.3     1  LIG  -0.1510   0.0610 
25    H1      -5.4245    8.1182    0.8398 H       1  LIG   0.0365   0.0000 
26    H2      -4.6783    6.5535    0.4948 H       1  LIG   0.0351   0.0000 
27    H3      -6.4419    6.6964    0.5608 H       1  LIG   0.0383   0.0000 
28    H4      -4.4643    7.1093    2.8458 H       1  LIG   0.0516   0.0000 
29    H5      -6.3373    7.4028    4.3671 H       1  LIG   0.0595   0.0000 
30    H6      -6.4528    8.5701    3.0613 H       1  LIG   0.0569   0.0000 
31    H7      -8.8462    8.9175    3.2067 H       1  LIG   0.1481   0.1500 
32    H8     -11.5344    5.6241    3.1635 H       1  LIG   0.0740   0.0000 
33    H9     -10.6639    5.6490    1.6127 H       1  LIG   0.0702   0.0000 
34    H10     -9.4974    5.1899    4.4138 H       1  LIG   0.0508   0.0000 
35    H11     -9.6405    4.0072    3.1154 H       1  LIG   0.0515   0.0000 
36    H12     -8.0874    5.2828    1.7079 H       1  LIG   0.0688   0.0000 
37    H13     -6.8749    5.0170    4.5298 H       1  LIG   0.0523   0.0000 
38    H14     -5.5581    4.7300    1.7616 H       1  LIG   0.0578   0.0000 
39    H15     -4.3709    5.3102    4.5457 H       1  LIG   0.0533   0.0000 
40    H16     -3.1298    4.6775    1.8709 H       1  LIG   0.0463   0.0000 
41    H17     -2.5727    5.7782    3.1456 H       1  LIG   0.0464   0.0000 
42    H18     -1.3394    3.4372    2.9609 H       1  LIG   0.0521   0.0000 
43    H19     -1.8939    3.9100    4.5688 H       1  LIG   0.0615   0.0000 
44    H20     -3.2555    2.0955    2.5412 H       1  LIG   0.0793   0.0000 
45    H21     -5.5007    2.3967    2.2082 H       1  LIG   0.0439   0.0000 
46    H22     -5.8920    1.4647    3.6320 H       1  LIG   0.0584   0.0000 
47    H23     -7.6253    2.9044    4.2601 H       1  LIG   0.0411   0.0000 
48    H24     -7.6826    2.9597    2.5067 H       1  LIG   0.0424   0.0000 
49    H25     -3.9282    3.4293    6.0883 H       1  LIG   0.0419   0.0000 
50    H26     -5.6670    3.6013    5.8586 H       1  LIG   0.0361   0.0000 
51    H27     -4.9391    1.9988    5.8307 H       1  LIG   0.0342   0.0000 
52    H28     -2.8241   -1.7056    5.0809 H       1  LIG   0.0762   0.0000 
53    H29     -1.4924   -0.5684    5.3724 H       1  LIG   0.0757   0.0000 
54    H30     -3.0473   -0.3949    6.2577 H       1  LIG   0.0752   0.0000 
@<TRIPOS>BOND
1     1     2     1
2     1     25    1
3     1     26    1
4     1     27    1
5     2     12    1
6     2     3     1
7     2     28    1
8     3     4     1
9     3     29    1
10    3     30    1
11    4     10    1
12    4     5     2
13    5     6     1
14    5     31    1
15    6     7     2
16    6     8     1
17    8     9     1
18    8     32    1
19    8     33    1
20    9     10    1
21    9     34    1
22    9     35    1
23    10    11    1
24    10    36    1
25    11    19    1
26    11    12    1
27    11    37    1
28    12    13    1
29    12    38    1
30    13    17    1
31    13    14    1
32    13    39    1
33    14    15    1
34    14    40    1
35    14    41    1
36    15    16    1
37    15    42    1
38    15    43    1
39    16    17    1
40    16    21    1
41    16    44    1
42    17    18    1
43    17    20    1
44    18    19    1
45    18    45    1
46    18    46    1
47    19    47    1
48    19    48    1
49    20    49    1
50    20    50    1
51    20    51    1
52    21    22    1
53    22    23    2
54    22    24    1
55    24    52    1
56    24    53    1
57    24    54    1
@<TRIPOS>SUBSTRUCTURE
1   LIG    1    
 
########## Number      : 119
########## Name        : ZINC00000802
########## Description : AM1BCC_CHARGES =   1.0001 ORIGINAL_CHARGES =   1.0000

@<TRIPOS>MOLECULE
ZINC00000802
49    51    1     0     0    
SMALL
USER_CHARGES
****
****
@<TRIPOS>ATOM
1     C1       0.8667   -6.0295    0.9344 C.3     1  LIG   0.1083   0.2800 
2     O1       1.4919   -6.9130    0.0118 O.3     1  LIG  -0.2984  -0.3625 
3     C2       2.7708   -7.3164    0.2957 C.ar    1  LIG   0.1527   0.0825 
4     C3       3.4965   -6.9462    1.4303 C.ar    1  LIG  -0.2559  -0.1500 
5     C4       4.8094   -7.4052    1.6207 C.ar    1  LIG  -0.0916  -0.1435 
6     C5       5.4027   -8.2327    0.6541 C.ar    1  LIG  -0.2341  -0.1500 
7     C6       4.6946   -8.6144   -0.4877 C.ar    1  LIG   0.1572   0.0825 
8     C7       3.3726   -8.1684   -0.6440 C.ar    1  LIG   0.0628   0.0825 
9     O2       2.6771   -8.5120   -1.7819 O.3     1  LIG  -0.3000  -0.3625 
10    C8       1.9505   -9.7229   -1.5669 C.3     1  LIG   0.1143   0.2800 
11    O3       5.1875   -9.4042   -1.4936 O.3     1  LIG  -0.2944  -0.3625 
12    C9       6.5298   -9.8572   -1.3688 C.3     1  LIG   0.1069   0.2800 
13    C10      5.5813   -7.0094    2.8601 C.3     1  LIG  -0.0524   0.1435 
14    C11      5.8010   -8.1706    3.8680 C.3     1  LIG   0.1971   0.6465 
15    C12      6.6699   -7.7146    5.0268 C.ar    1  LIG  -0.1488  -0.1435 
16    C13      8.0411   -7.4874    4.8079 C.ar    1  LIG  -0.1517  -0.1500 
17    C14      8.8572   -7.0558    5.8514 C.ar    1  LIG   0.0674   0.0825 
18    C15      8.3234   -6.8523    7.1179 C.ar    1  LIG   0.1594   0.0825 
19    C16      6.9721   -7.0784    7.3568 C.ar    1  LIG  -0.1278  -0.1500 
20    C17      6.1335   -7.5033    6.3143 C.ar    1  LIG  -0.0767  -0.1435 
21    C18      4.6866   -7.7985    6.6200 C.3     1  LIG  -0.0580   0.1435 
22    C19      3.8088   -7.8313    5.3804 C.3     1  LIG   0.1109   0.5030 
23    O4       9.1069   -6.4346    8.1564 O.3     1  LIG  -0.4682  -0.5325 
24    O5      10.1902   -6.8273    5.6559 O.3     1  LIG  -0.4948  -0.5325 
25    H1      10.0119   -6.3308    7.8113 H       1  LIG   0.4578   0.4500 
26    H2      10.4065   -7.0132    4.7260 H       1  LIG   0.4441   0.4500 
27    H3      -0.1329   -5.8010    0.5524 H       1  LIG   0.0915   0.0000 
28    H4       0.7476   -6.5029    1.9146 H       1  LIG   0.0199   0.0000 
29    H5       1.4164   -5.0858    1.0128 H       1  LIG   0.0480   0.0000 
30    H6       3.0625   -6.2963    2.1847 H       1  LIG   0.1389   0.1500 
31    H7       6.4257   -8.5606    0.8153 H       1  LIG   0.1426   0.1500 
32    H8       1.4136   -9.9588   -2.4905 H       1  LIG   0.0810   0.0000 
33    H9       2.6241  -10.5575   -1.3442 H       1  LIG   0.0336   0.0000 
34    H10      1.2122   -9.6076   -0.7660 H       1  LIG   0.0321   0.0000 
35    H11      6.7614  -10.4615   -2.2512 H       1  LIG   0.0914   0.0000 
36    H12      7.2305   -9.0160   -1.3487 H       1  LIG   0.0447   0.0000 
37    H13      6.6502  -10.4960   -0.4877 H       1  LIG   0.0267   0.0000 
38    H14      5.0942   -6.1564    3.3501 H       1  LIG   0.0806   0.0000 
39    H15      6.5515   -6.6168    2.5251 H       1  LIG   0.1028   0.0000 
40    H16      6.3139   -8.9916    3.3355 H       1  LIG   0.1024   0.0000 
41    H17      8.4659   -7.6498    3.8200 H       1  LIG   0.1466   0.1500 
42    H18      6.5704   -6.9290    8.3563 H       1  LIG   0.1746   0.1500 
43    H19      4.6397   -8.7704    7.1276 H       1  LIG   0.0832   0.0000 
44    H20      4.2883   -7.0466    7.3116 H       1  LIG   0.1075   0.0000 
45    H21      2.8348   -8.2820    5.5938 H       1  LIG   0.1012   0.0000 
46    H22      3.6513   -6.8374    4.9511 H       1  LIG   0.1073   0.0000 
47    N1       4.4705   -8.6802    4.3474 N.4     1  LIG  -0.7611  -0.9060 
48    H23      3.8328   -8.8173    3.5517 H       1  LIG   0.4686   0.4500 
49    H24      4.6084   -9.6229    4.7383 H       1  LIG   0.4499   0.4500 
@<TRIPOS>BOND
1     1     2     1
2     1     27    1
3     1     28    1
4     1     29    1
5     2     3     1
6     3     8     ar
7     3     4     ar
8     4     5     ar
9     4     30    1
10    5     6     ar
11    5     13    1
12    6     7     ar
13    6     31    1
14    7     8     ar
15    7     11    1
16    8     9     1
17    9     10    1
18    10    32    1
19    10    33    1
20    10    34    1
21    11    12    1
22    12    35    1
23    12    36    1
24    12    37    1
25    13    14    1
26    13    38    1
27    13    39    1
28    14    15    1
29    14    40    1
30    14    47    1
31    15    20    ar
32    15    16    ar
33    16    17    ar
34    16    41    1
35    17    18    ar
36    17    24    1
37    18    19    ar
38    18    23    1
39    19    20    ar
40    19    42    1
41    20    21    1
42    21    22    1
43    21    43    1
44    21    44    1
45    22    45    1
46    22    46    1
47    22    47    1
48    23    25    1
49    24    26    1
50    47    48    1
51    47    49    1
@<TRIPOS>SUBSTRUCTURE
1   LIG    1    
 
########## Number      : 120
########## Name        : ZINC00000803
########## Description : AM1BCC_CHARGES =  -0.0001 ORIGINAL_CHARGES =   0.0000

@<TRIPOS>MOLECULE
ZINC00000803
36    37    1     0     0    
SMALL
USER_CHARGES
****
****
@<TRIPOS>ATOM
1     C1       5.5133   -9.0100    1.6607 C.3     1  LIG  -0.0898   0.0000 
2     C2       5.9475   -7.6191    2.1645 C.3     1  LIG  -0.1322   0.0610 
3     C3       6.1588   -7.6902    3.6821 C.3     1  LIG  -0.0881   0.0000 
4     C4       7.2621   -7.2548    1.4626 C.3     1  LIG  -0.0965   0.0000 
5     C5       4.8145   -6.6088    1.8582 C.2     1  LIG   0.5739   0.4480 
6     O1       3.6447   -6.9965    1.7692 O.2     1  LIG  -0.4757  -0.5700 
7     C6       5.1660   -5.1262    1.6743 C.3     1  LIG   0.1764   0.5966 
8     N1       3.9787   -4.3226    1.4254 N.pl3   1  LIG  -0.0926   0.3140 
9     C7       3.5129   -3.8992    0.2168 C.2     1  LIG   0.4063   0.0365 
10    N2       2.4164   -3.1974    0.3870 N.2     1  LIG  -0.6722  -0.5653 
11    C8       2.2493   -3.2301    1.7418 C.2     1  LIG   0.5041   0.3660 
12    N3       3.1757   -3.9063    2.4243 N.2     1  LIG  -0.4795  -0.7068 
13    O2       5.7951   -4.6651    2.8642 O.3     1  LIG  -0.3065  -0.3625 
14    C9       6.6502   -3.5980    2.8066 C.ar    1  LIG   0.1185   0.0825 
15    C10      6.9222   -2.8146    1.6830 C.ar    1  LIG  -0.1845  -0.1500 
16    C11      7.8209   -1.7467    1.7711 C.ar    1  LIG  -0.0896  -0.1500 
17    C12      8.4470   -1.4603    2.9829 C.ar    1  LIG  -0.0094   0.1770 
18    C13      8.1809   -2.2323    4.1103 C.ar    1  LIG  -0.0935  -0.1500 
19    C14      7.2831   -3.2969    4.0189 C.ar    1  LIG  -0.1363  -0.1500 
20    Cl1      9.5524   -0.1449    3.0861 Cl      1  LIG  -0.0879  -0.1770 
21    H1       5.2957   -8.9891    0.5864 H       1  LIG   0.0395   0.0000 
22    H2       6.2953   -9.7586    1.8313 H       1  LIG   0.0442   0.0000 
23    H3       4.6083   -9.3588    2.1716 H       1  LIG   0.0601   0.0000 
24    H4       6.5588   -6.7538    4.0829 H       1  LIG   0.0577   0.0000 
25    H5       5.2158   -7.8898    4.2038 H       1  LIG   0.0516   0.0000 
26    H6       6.8645   -8.4857    3.9467 H       1  LIG   0.0449   0.0000 
27    H7       7.6889   -6.3239    1.8484 H       1  LIG   0.0486   0.0000 
28    H8       8.0173   -8.0361    1.6062 H       1  LIG   0.0523   0.0000 
29    H9       7.1124   -7.1287    0.3843 H       1  LIG   0.0327   0.0000 
30    H10      5.8230   -5.0710    0.7962 H       1  LIG   0.0807   0.0000 
31    H11      3.9952   -4.1226   -0.7244 H       1  LIG   0.0671   0.1500 
32    H12      1.4266   -2.7462    2.2474 H       1  LIG   0.0747   0.1500 
33    H13      6.4536   -2.9960    0.7220 H       1  LIG   0.1378   0.1500 
34    H14      8.0210   -1.1464    0.8871 H       1  LIG   0.1515   0.1500 
35    H15      8.6611   -2.0181    5.0612 H       1  LIG   0.1536   0.1500 
36    H16      7.0785   -3.8955    4.9037 H       1  LIG   0.1580   0.1500 
@<TRIPOS>BOND
1     1     2     1
2     1     21    1
3     1     22    1
4     1     23    1
5     2     3     1
6     2     4     1
7     2     5     1
8     3     24    1
9     3     25    1
10    3     26    1
11    4     27    1
12    4     28    1
13    4     29    1
14    5     6     2
15    5     7     1
16    7     8     1
17    7     13    1
18    7     30    1
19    8     12    1
20    8     9     1
21    9     10    2
22    9     31    1
23    10    11    1
24    11    12    2
25    11    32    1
26    13    14    1
27    14    19    ar
28    14    15    ar
29    15    16    ar
30    15    33    1
31    16    17    ar
32    16    34    1
33    17    18    ar
34    17    20    1
35    18    19    ar
36    18    35    1
37    19    36    1
@<TRIPOS>SUBSTRUCTURE
1   LIG    1    
 
########## Number      : 121
########## Name        : ZINC00000808
########## Description : AM1BCC_CHARGES =   0.9997 ORIGINAL_CHARGES =   1.0000

@<TRIPOS>MOLECULE
ZINC00000808
44    46    1     0     0    
SMALL
USER_CHARGES
****
****
@<TRIPOS>ATOM
1     C1       7.0874   -6.9572    6.1568 C.3     1  LIG  -0.1025   0.0000 
2     C2       6.2045   -6.1843    5.1629 C.3     1  LIG  -0.0945   0.0000 
3     C3       6.4812   -6.7167    3.7316 C.3     1  LIG   0.0223   0.3691 
4     N1       5.9196   -5.8646    2.6552 N.pl3   1  LIG  -0.2069  -0.5691 
5     C4       6.3790   -4.5233    2.5525 C.ar    1  LIG   0.0184   0.1000 
6     C5       7.6516   -4.1281    3.0144 C.ar    1  LIG  -0.1570  -0.1500 
7     C6       8.1002   -2.8089    2.9031 C.ar    1  LIG  -0.0857  -0.1500 
8     C7       7.2894   -1.8462    2.3197 C.ar    1  LIG  -0.1311  -0.1500 
9     C8       6.0328   -2.2049    1.8435 C.ar    1  LIG  -0.0667  -0.1500 
10    C9       5.5801   -3.5308    1.9481 C.ar    1  LIG  -0.0316   0.1015 
11    S1       3.9382   -3.8772    1.3458 S.3     1  LIG  -0.2213  -0.2030 
12    C10      4.0328   -5.6392    1.0904 C.ar    1  LIG  -0.0315   0.1015 
13    C11      4.9793   -6.4433    1.7603 C.ar    1  LIG   0.0195   0.1000 
14    C12      4.9706   -7.8209    1.4602 C.ar    1  LIG  -0.1547  -0.1500 
15    C13      4.0389   -8.3802    0.5799 C.ar    1  LIG  -0.0864  -0.1500 
16    C14      3.0950   -7.5738   -0.0383 C.ar    1  LIG  -0.1299  -0.1500 
17    C15      3.0940   -6.2062    0.2119 C.ar    1  LIG  -0.0692  -0.1500 
18    C16      4.7280   -6.3848    5.5482 C.3     1  LIG   0.1175   0.5030 
19    C17      2.4090   -5.8806    4.7661 C.3     1  LIG   0.0866   0.5030 
20    C18      3.8612   -4.0172    5.5262 C.3     1  LIG   0.0859   0.5030 
21    H1       8.1480   -6.8246    5.9180 H       1  LIG   0.0699   0.0000 
22    H2       6.9288   -6.5960    7.1785 H       1  LIG   0.0564   0.0000 
23    H3       6.8647   -8.0295    6.1369 H       1  LIG   0.0534   0.0000 
24    H4       6.4989   -5.1317    5.2672 H       1  LIG   0.0773   0.0000 
25    H5       7.5586   -6.8400    3.5637 H       1  LIG   0.0698   0.0000 
26    H6       6.0866   -7.7375    3.7077 H       1  LIG   0.0722   0.0000 
27    H7       8.3369   -4.8427    3.4620 H       1  LIG   0.1446   0.1500 
28    H8       9.0868   -2.5396    3.2697 H       1  LIG   0.1538   0.1500 
29    H9       7.6343   -0.8202    2.2322 H       1  LIG   0.1574   0.1500 
30    H10      5.4095   -1.4376    1.3889 H       1  LIG   0.1592   0.1500 
31    H11      5.7143   -8.4969    1.8735 H       1  LIG   0.1464   0.1500 
32    H12      4.0628   -9.4464    0.3723 H       1  LIG   0.1540   0.1500 
33    H13      2.3706   -8.0049   -0.7229 H       1  LIG   0.1577   0.1500 
34    H14      2.3549   -5.5853   -0.2903 H       1  LIG   0.1588   0.1500 
35    H15      4.3870   -7.3840    5.2523 H       1  LIG   0.0966   0.0000 
36    H16      4.5699   -6.2801    6.6278 H       1  LIG   0.0932   0.0000 
37    H17      1.8199   -5.1295    4.2332 H       1  LIG   0.1028   0.0000 
38    H18      2.4256   -6.8105    4.1915 H       1  LIG   0.1014   0.0000 
39    H19      2.0179   -6.0462    5.7733 H       1  LIG   0.0934   0.0000 
40    H20      3.2158   -3.3489    4.9498 H       1  LIG   0.1023   0.0000 
41    H21      3.5044   -4.1110    6.5552 H       1  LIG   0.0929   0.0000 
42    H22      4.8869   -3.6448    5.4994 H       1  LIG   0.1010   0.0000 
43    N2       3.8223   -5.3752    4.8783 N.4     1  LIG  -0.6887  -0.9590 
44    H23      4.1563   -5.2514    3.9151 H       1  LIG   0.4927   0.4500 
@<TRIPOS>BOND
1     1     2     1
2     1     21    1
3     1     22    1
4     1     23    1
5     2     3     1
6     2     18    1
7     2     24    1
8     3     4     1
9     3     25    1
10    3     26    1
11    4     13    1
12    4     5     1
13    5     10    ar
14    5     6     ar
15    6     7     ar
16    6     27    1
17    7     8     ar
18    7     28    1
19    8     9     ar
20    8     29    1
21    9     10    ar
22    9     30    1
23    10    11    1
24    11    12    1
25    12    17    ar
26    12    13    ar
27    13    14    ar
28    14    15    ar
29    14    31    1
30    15    16    ar
31    15    32    1
32    16    17    ar
33    16    33    1
34    17    34    1
35    18    35    1
36    18    36    1
37    18    43    1
38    19    37    1
39    19    38    1
40    19    39    1
41    19    43    1
42    20    40    1
43    20    41    1
44    20    42    1
45    20    43    1
46    43    44    1
@<TRIPOS>SUBSTRUCTURE
1   LIG    1    
 
########## Number      : 122
########## Name        : ZINC00000811
########## Description : AM1BCC_CHARGES =   0.0005 ORIGINAL_CHARGES =   0.0000

@<TRIPOS>MOLECULE
ZINC00000811
39    40    1     0     0    
SMALL
USER_CHARGES
****
****
@<TRIPOS>ATOM
1     C1       3.0389   -3.2325    0.1056 C.3     1  LIG   0.1099   0.2800 
2     O1       3.4020   -4.6077    0.0956 O.3     1  LIG  -0.3089  -0.3625 
3     C2       4.2755   -5.0318    1.0631 C.ar    1  LIG   0.1368   0.0825 
4     C3       4.8204   -4.2236    2.0607 C.ar    1  LIG  -0.2067  -0.1500 
5     C4       5.7271   -4.7744    2.9731 C.ar    1  LIG  -0.0690   0.0862 
6     C5       6.0872   -6.1246    2.9278 C.ar    1  LIG  -0.1949  -0.1500 
7     C6       5.5487   -6.9445    1.9361 C.ar    1  LIG   0.1391   0.0825 
8     C7       4.6317   -6.3923    1.0227 C.ar    1  LIG   0.0500   0.0825 
9     O2       4.1231   -7.1885    0.0198 O.3     1  LIG  -0.3119  -0.3625 
10    C8       2.9070   -7.8023    0.4499 C.3     1  LIG   0.1166   0.2800 
11    O3       5.8415   -8.2731    1.7677 O.3     1  LIG  -0.3079  -0.3625 
12    C9       6.7642   -8.8559    2.6799 C.3     1  LIG   0.1091   0.2800 
13    C10      6.2842   -3.9298    4.0411 C.2     1  LIG   0.6710   0.5438 
14    O4       5.8859   -4.1554    5.1824 O.2     1  LIG  -0.5928  -0.5700 
15    N1       7.2063   -2.9449    3.6886 N.am    1  LIG  -0.4674  -0.6602 
16    C11      7.7438   -2.7118    2.3421 C.3     1  LIG   0.0563   0.3001 
17    C12      9.2581   -2.5338    2.3982 C.3     1  LIG   0.1054   0.2800 
18    O5       9.6126   -1.5103    3.3330 O.3     1  LIG  -0.4108  -0.5600 
19    C13      9.1807   -1.8528    4.6539 C.3     1  LIG   0.1042   0.2800 
20    C14      7.6641   -1.9876    4.6949 C.3     1  LIG   0.0506   0.3001 
21    H1       2.3532   -3.0625   -0.7300 H       1  LIG   0.0718   0.0000 
22    H2       2.5101   -2.9710    1.0280 H       1  LIG   0.0366   0.0000 
23    H3       3.9137   -2.5915   -0.0465 H       1  LIG   0.0350   0.0000 
24    H4       4.5638   -3.1724    2.1483 H       1  LIG   0.1507   0.1500 
25    H5       6.7884   -6.5034    3.6649 H       1  LIG   0.1545   0.1500 
26    H6       2.5374   -8.4230   -0.3717 H       1  LIG   0.0610   0.0000 
27    H7       3.0729   -8.4514    1.3165 H       1  LIG   0.0331   0.0000 
28    H8       2.1416   -7.0529    0.6788 H       1  LIG   0.0334   0.0000 
29    H9       6.8844   -9.9084    2.4059 H       1  LIG   0.0714   0.0000 
30    H10      7.7471   -8.3789    2.6063 H       1  LIG   0.0360   0.0000 
31    H11      6.3812   -8.8210    3.7051 H       1  LIG   0.0384   0.0000 
32    H12      7.4987   -3.5265    1.6578 H       1  LIG   0.0718   0.0000 
33    H13      7.2690   -1.7951    1.9737 H       1  LIG   0.0538   0.0000 
34    H14      9.7570   -3.4681    2.6822 H       1  LIG   0.0375   0.0000 
35    H15      9.6374   -2.2375    1.4153 H       1  LIG   0.0759   0.0000 
36    H16      9.6734   -2.7815    4.9654 H       1  LIG   0.0393   0.0000 
37    H17      9.5060   -1.0567    5.3307 H       1  LIG   0.0759   0.0000 
38    H18      7.1946   -1.0288    4.4450 H       1  LIG   0.0539   0.0000 
39    H19      7.3318   -2.2765    5.6964 H       1  LIG   0.0918   0.0000 
@<TRIPOS>BOND
1     1     2     1
2     1     21    1
3     1     22    1
4     1     23    1
5     2     3     1
6     3     8     ar
7     3     4     ar
8     4     5     ar
9     4     24    1
10    5     6     ar
11    5     13    1
12    6     7     ar
13    6     25    1
14    7     8     ar
15    7     11    1
16    8     9     1
17    9     10    1
18    10    26    1
19    10    27    1
20    10    28    1
21    11    12    1
22    12    29    1
23    12    30    1
24    12    31    1
25    13    14    2
26    13    15    am
27    15    20    1
28    15    16    1
29    16    17    1
30    16    32    1
31    16    33    1
32    17    18    1
33    17    34    1
34    17    35    1
35    18    19    1
36    19    20    1
37    19    36    1
38    19    37    1
39    20    38    1
40    20    39    1
@<TRIPOS>SUBSTRUCTURE
1   LIG    1    
 
########## Number      : 123
########## Name        : ZINC00000815
########## Description : AM1BCC_CHARGES =  -0.0001 ORIGINAL_CHARGES =   0.0000

@<TRIPOS>MOLECULE
ZINC00000815
47    48    1     0     0    
SMALL
USER_CHARGES
****
****
@<TRIPOS>ATOM
1     C1       7.6173   -8.9125    0.6490 C.3     1  LIG   0.1098   0.2800 
2     O1       6.2194   -8.7734    0.4259 O.3     1  LIG  -0.3103  -0.3625 
3     C2       5.5731   -7.7750    1.1077 C.ar    1  LIG   0.1376   0.0825 
4     C3       6.1808   -6.8880    1.9960 C.ar    1  LIG  -0.1975  -0.1500 
5     C4       5.4005   -5.9305    2.6511 C.ar    1  LIG  -0.0634   0.0862 
6     C5       4.0244   -5.8214    2.4258 C.ar    1  LIG  -0.2077  -0.1500 
7     C6       3.4039   -6.7027    1.5407 C.ar    1  LIG   0.1394   0.0825 
8     C7       4.1901   -7.6606    0.8742 C.ar    1  LIG   0.0468   0.0825 
9     O2       3.5778   -8.5555    0.0241 O.3     1  LIG  -0.3121  -0.3625 
10    C8       3.5685   -8.0391   -1.3077 C.3     1  LIG   0.1165   0.2800 
11    O3       2.0632   -6.7181    1.2553 O.3     1  LIG  -0.3079  -0.3625 
12    C9       1.2445   -5.7706    1.9298 C.3     1  LIG   0.1100   0.2800 
13    C10      6.0623   -4.9905    3.5686 C.2     1  LIG   0.6658   0.5438 
14    O4       6.7501   -4.1138    3.0476 O.2     1  LIG  -0.5962  -0.5700 
15    N1       5.8671   -5.1558    4.9497 N.am    1  LIG  -0.4692  -0.6602 
16    C11      5.0403   -6.2240    5.5290 C.3     1  LIG   0.1022   0.3001 
17    C12      5.3753   -6.7000    6.9452 C.3     1  LIG  -0.0873   0.0000 
18    C13      6.7446   -7.3584    7.1006 C.3     1  LIG  -0.0745   0.0000 
19    C14      7.8947   -6.4031    7.4303 C.3     1  LIG  -0.0758   0.0000 
20    C15      8.4739   -5.6625    6.2277 C.3     1  LIG  -0.0719   0.0000 
21    C16      7.9296   -4.2499    6.0161 C.3     1  LIG  -0.0992   0.0000 
22    C17      6.4179   -4.1319    5.8343 C.3     1  LIG   0.1044   0.3001 
23    H1       7.9708   -9.7488    0.0382 H       1  LIG   0.0702   0.0000 
24    H2       8.1589   -8.0159    0.3300 H       1  LIG   0.0376   0.0000 
25    H3       7.8283   -9.1531    1.6962 H       1  LIG   0.0360   0.0000 
26    H4       7.2459   -6.9244    2.2030 H       1  LIG   0.1527   0.1500 
27    H5       3.4679   -5.0518    2.9513 H       1  LIG   0.1483   0.1500 
28    H6       3.0755   -8.7763   -1.9484 H       1  LIG   0.0600   0.0000 
29    H7       3.0008   -7.1042   -1.3686 H       1  LIG   0.0319   0.0000 
30    H8       4.5861   -7.8897   -1.6845 H       1  LIG   0.0340   0.0000 
31    H9       0.2129   -5.9264    1.5997 H       1  LIG   0.0708   0.0000 
32    H10      1.2734   -5.9237    3.0137 H       1  LIG   0.0344   0.0000 
33    H11      1.5270   -4.7464    1.6652 H       1  LIG   0.0359   0.0000 
34    H12      4.0125   -5.8405    5.5288 H       1  LIG   0.0282   0.0000 
35    H13      5.0512   -7.0942    4.8650 H       1  LIG   0.0559   0.0000 
36    H14      5.2423   -5.9058    7.6867 H       1  LIG   0.0476   0.0000 
37    H15      4.6208   -7.4570    7.1999 H       1  LIG   0.0467   0.0000 
38    H16      6.6674   -8.0578    7.9441 H       1  LIG   0.0369   0.0000 
39    H17      6.9848   -7.9708    6.2235 H       1  LIG   0.0461   0.0000 
40    H18      7.6098   -5.7061    8.2269 H       1  LIG   0.0410   0.0000 
41    H19      8.7027   -7.0209    7.8449 H       1  LIG   0.0362   0.0000 
42    H20      9.5564   -5.5623    6.3830 H       1  LIG   0.0367   0.0000 
43    H21      8.3621   -6.2582    5.3140 H       1  LIG   0.0436   0.0000 
44    H22      8.2318   -3.6091    6.8538 H       1  LIG   0.0418   0.0000 
45    H23      8.4279   -3.8354    5.1305 H       1  LIG   0.0663   0.0000 
46    H24      6.2009   -3.1510    5.3921 H       1  LIG   0.0552   0.0000 
47    H25      5.9027   -4.1383    6.7976 H       1  LIG   0.0464   0.0000 
@<TRIPOS>BOND
1     1     2     1
2     1     23    1
3     1     24    1
4     1     25    1
5     2     3     1
6     3     8     ar
7     3     4     ar
8     4     5     ar
9     4     26    1
10    5     6     ar
11    5     13    1
12    6     7     ar
13    6     27    1
14    7     8     ar
15    7     11    1
16    8     9     1
17    9     10    1
18    10    28    1
19    10    29    1
20    10    30    1
21    11    12    1
22    12    31    1
23    12    32    1
24    12    33    1
25    13    14    2
26    13    15    am
27    15    22    1
28    15    16    1
29    16    17    1
30    16    34    1
31    16    35    1
32    17    18    1
33    17    36    1
34    17    37    1
35    18    19    1
36    18    38    1
37    18    39    1
38    19    20    1
39    19    40    1
40    19    41    1
41    20    21    1
42    20    42    1
43    20    43    1
44    21    22    1
45    21    44    1
46    21    45    1
47    22    46    1
48    22    47    1
@<TRIPOS>SUBSTRUCTURE
1   LIG    1    
 
########## Number      : 124
########## Name        : ZINC00000819
########## Description : AM1BCC_CHARGES =  -0.0002 ORIGINAL_CHARGES =  -0.0000

@<TRIPOS>MOLECULE
ZINC00000819
41    42    1     0     0    
SMALL
USER_CHARGES
****
****
@<TRIPOS>ATOM
1     C1       5.6429   -7.0894    0.8232 C.ar    1  LIG  -0.1560  -0.1500 
2     C2       6.8102   -7.7691    1.1991 C.ar    1  LIG  -0.1159  -0.1500 
3     C3       7.2719   -7.5903    2.5031 C.ar    1  LIG  -0.0586  -0.1516 
4     C4       6.6210   -6.7706    3.4214 C.ar    1  LIG  -0.0612   0.0000 
5     C5       5.4472   -6.0991    3.0079 C.ar    1  LIG  -0.1077  -0.1500 
6     C6       4.9335   -6.2512    1.7016 C.ar    1  LIG   0.0875   0.1000 
7     N1       3.7612   -5.5814    1.3125 N.pl3   1  LIG  -0.6380  -0.8382 
8     C7       2.5912   -5.7045    2.1989 C.3     1  LIG   0.1777   0.3691 
9     C8       1.8973   -7.0510    2.0113 C.3     1  LIG  -0.0047   0.2900 
10    Cl1      0.4771   -7.1708    3.0766 Cl      1  LIG  -0.1897  -0.2900 
11    C9       3.5624   -5.2765   -0.1146 C.3     1  LIG   0.1717   0.3691 
12    C10      2.7039   -4.0342   -0.3340 C.3     1  LIG   0.0296   0.2900 
13    Cl2      2.6872   -3.5868   -2.0585 Cl      1  LIG  -0.1889  -0.2900 
14    C11      7.3658   -6.8198    4.6448 C.2     1  LIG  -0.1722  -0.1810 
15    C12      8.4378   -7.6623    4.4242 C.2     1  LIG  -0.0333  -0.3016 
16    N2       8.3686   -8.1225    3.1380 N.pl3   1  LIG  -0.1822   0.0332 
17    C13      7.0533   -6.1019    5.9218 C.3     1  LIG   0.0063   0.1810 
18    C14      5.9640   -6.7983    6.7557 C.3     1  LIG  -0.0700   0.3970 
19    C15      6.5248   -8.1155    7.3248 C.2     1  LIG   0.9292   0.9060 
20    O1       7.4077   -7.9804    8.2194 O.co2   1  LIG  -0.8141  -0.9000 
21    H1       9.0284   -8.7601    2.7144 H       1  LIG   0.3040   0.2700 
22    H2       4.8013   -6.2913    8.4152 H       1  LIG   0.4358   0.4500 
23    H3       6.3446   -5.6993    8.4905 H       1  LIG   0.4790   0.4500 
24    H4       5.2829   -7.2570   -0.1902 H       1  LIG   0.1329   0.1500 
25    H5       7.3276   -8.4146    0.4970 H       1  LIG   0.1363   0.1500 
26    H6       4.9587   -5.4362    3.7168 H       1  LIG   0.1279   0.1500 
27    H7       2.8673   -5.5707    3.2508 H       1  LIG   0.0618   0.0000 
28    H8       1.8825   -4.8941    1.9982 H       1  LIG   0.0605   0.0000 
29    H9       1.5494   -7.1811    0.9822 H       1  LIG   0.0671   0.0000 
30    H10      2.5638   -7.8839    2.2548 H       1  LIG   0.0801   0.0000 
31    H11      4.5354   -5.0837   -0.5859 H       1  LIG   0.0765   0.0000 
32    H12      3.1157   -6.1403   -0.6219 H       1  LIG   0.0299   0.0000 
33    H13      1.6638   -4.2033   -0.0438 H       1  LIG   0.0646   0.0000 
34    H14      3.0894   -3.1791    0.2297 H       1  LIG   0.0795   0.0000 
35    H15      9.2405   -7.9786    5.0764 H       1  LIG   0.1857   0.1500 
36    H16      7.9753   -5.9880    6.5075 H       1  LIG   0.0688   0.0000 
37    H17      6.7301   -5.0829    5.6699 H       1  LIG   0.0273   0.0000 
38    H18      5.0900   -6.9977    6.1128 H       1  LIG   0.0995   0.0000 
39    O2       6.0092   -9.1640    6.8467 O.co2   1  LIG  -0.7100  -0.9000 
40    N3       5.5558   -5.8764    7.8526 N.4     1  LIG  -0.8311  -0.8530 
41    H19      5.2196   -4.9726    7.4970 H       1  LIG   0.4142   0.4500 
@<TRIPOS>BOND
1     1     6     ar
2     1     2     ar
3     1     24    1
4     2     3     ar
5     2     25    1
6     3     16    1
7     3     4     ar
8     4     5     ar
9     4     14    1
10    5     6     ar
11    5     26    1
12    6     7     1
13    7     8     1
14    7     11    1
15    8     9     1
16    8     27    1
17    8     28    1
18    9     10    1
19    9     29    1
20    9     30    1
21    11    12    1
22    11    31    1
23    11    32    1
24    12    13    1
25    12    33    1
26    12    34    1
27    14    15    2
28    14    17    1
29    15    16    1
30    15    35    1
31    16    21    1
32    17    18    1
33    17    36    1
34    17    37    1
35    18    19    1
36    18    38    1
37    18    40    1
38    19    20    2
39    19    39    1
40    22    40    1
41    23    40    1
42    40    41    1
@<TRIPOS>SUBSTRUCTURE
1   LIG    1    
 
########## Number      : 125
########## Name        : ZINC00000825
########## Description : AM1BCC_CHARGES =   0.0003 ORIGINAL_CHARGES =  -0.0000

@<TRIPOS>MOLECULE
ZINC00000825
27    26    1     0     0    
SMALL
USER_CHARGES
****
****
@<TRIPOS>ATOM
1     C1       6.1882  -11.4690    0.0461 C.3     1  LIG  -0.0917   0.0000 
2     C2       5.1037  -10.4093   -0.1170 C.3     1  LIG  -0.0833   0.0000 
3     C3       5.4268   -9.3805   -1.2202 C.3     1  LIG  -0.0576   0.0000 
4     C4       5.4741  -10.0453   -2.6082 C.3     1  LIG  -0.0981   0.0000 
5     C5       4.4113   -8.1997   -1.2249 C.3     1  LIG  -0.1261   0.0610 
6     C6       4.5446   -7.3260    0.0458 C.3     1  LIG  -0.0756   0.0000 
7     C7       3.8140   -5.9941   -0.0869 C.3     1  LIG  -0.0962   0.0000 
8     C8       2.9759   -8.7135   -1.3432 C.2     1  LIG   0.6611   0.5690 
9     O1       2.2809   -9.0295   -0.3810 O.2     1  LIG  -0.6160  -0.5700 
10    N1       2.5261   -8.7917   -2.6407 N.am    1  LIG  -0.6766  -0.8000 
11    H1       1.5875   -9.1213   -2.8372 H       1  LIG   0.3119   0.3700 
12    H2       3.0970   -8.5266   -3.4357 H       1  LIG   0.3032   0.3700 
13    H3       5.9562  -12.1131    0.9006 H       1  LIG   0.0369   0.0000 
14    H4       6.2621  -12.1091   -0.8377 H       1  LIG   0.0307   0.0000 
15    H5       7.1646  -11.0082    0.2258 H       1  LIG   0.0302   0.0000 
16    H6       4.1571  -10.9208   -0.3248 H       1  LIG   0.0557   0.0000 
17    H7       4.9939   -9.9056    0.8488 H       1  LIG   0.0522   0.0000 
18    H8       6.4482   -8.9915   -1.0568 H       1  LIG   0.0532   0.0000 
19    H9       4.5747  -10.6355   -2.8093 H       1  LIG   0.0370   0.0000 
20    H10      5.5818   -9.2953   -3.3990 H       1  LIG   0.0274   0.0000 
21    H11      6.3340  -10.7183   -2.6873 H       1  LIG   0.0427   0.0000 
22    H12      4.6517   -7.5325   -2.0715 H       1  LIG   0.0565   0.0000 
23    H13      4.1594   -7.8438    0.9311 H       1  LIG   0.0719   0.0000 
24    H14      5.6048   -7.1166    0.2329 H       1  LIG   0.0420   0.0000 
25    H15      3.9617   -5.3932    0.8161 H       1  LIG   0.0382   0.0000 
26    H16      4.1941   -5.4213   -0.9388 H       1  LIG   0.0267   0.0000 
27    H17      2.7378   -6.1387   -0.2214 H       1  LIG   0.0440   0.0000 
@<TRIPOS>BOND
1     1     2     1
2     1     13    1
3     1     14    1
4     1     15    1
5     2     3     1
6     2     16    1
7     2     17    1
8     3     4     1
9     3     5     1
10    3     18    1
11    4     19    1
12    4     20    1
13    4     21    1
14    5     6     1
15    5     8     1
16    5     22    1
17    6     7     1
18    6     23    1
19    6     24    1
20    7     25    1
21    7     26    1
22    7     27    1
23    8     9     2
24    8     10    am
25    10    11    1
26    10    12    1
@<TRIPOS>SUBSTRUCTURE
1   LIG    1    
 
########## Number      : 126
########## Name        : ZINC00000841
########## Description : AM1BCC_CHARGES =   1.0000 ORIGINAL_CHARGES =   1.0000

@<TRIPOS>MOLECULE
ZINC00000841
49    51    1     0     0    
SMALL
USER_CHARGES
****
****
@<TRIPOS>ATOM
1     C1       4.1604  -11.5847   -1.7532 C.3     1  LIG   0.1105   0.2800 
2     O1       4.3660  -10.3550   -1.0675 O.3     1  LIG  -0.3252  -0.3625 
3     C2       3.3082   -9.4878   -1.0263 C.ar    1  LIG   0.1441   0.0825 
4     C3       2.0537   -9.7019   -1.5819 C.ar    1  LIG  -0.1774  -0.1500 
5     C4       1.0602   -8.7264   -1.4547 C.ar    1  LIG  -0.1227  -0.1500 
6     C5       1.2806   -7.5275   -0.7863 C.ar    1  LIG   0.3587   0.3100 
7     C6       2.5528   -7.2881   -0.2264 C.ar    1  LIG  -0.0821   0.0000 
8     C7       3.5500   -8.2875   -0.3519 C.ar    1  LIG  -0.1712  -0.1500 
9     C8       2.7273   -6.0534    0.4453 C.ar    1  LIG  -0.1298   0.0862 
10    C9       1.6823   -5.1392    0.5447 C.ar    1  LIG  -0.2078  -0.1500 
11    C10      0.4836   -5.4836   -0.0404 C.ar    1  LIG   0.3911   0.1600 
12    N1       0.2698   -6.6444   -0.6956 N.ar    1  LIG  -0.6192  -0.6200 
13    C11      4.0278   -5.6711    1.0462 C.2     1  LIG   0.5801   0.4228 
14    O2       5.0367   -5.6818    0.3487 O.2     1  LIG  -0.4984  -0.5700 
15    C12      4.0199   -5.2453    2.5050 C.3     1  LIG  -0.1847   0.0610 
16    C13      5.3671   -5.5254    3.1779 C.3     1  LIG  -0.0780   0.0000 
17    C14      5.4648   -4.9951    4.6365 C.3     1  LIG  -0.0689   0.0000 
18    C15      4.4027   -5.6536    5.5369 C.3     1  LIG  -0.1107   0.0000 
19    C16      4.5182   -5.2159    6.9875 C.3     1  LIG   0.1082   0.5030 
20    C17      6.9511   -4.8076    6.6697 C.3     1  LIG   0.1046   0.5030 
21    C18      6.8779   -5.2744    5.2185 C.3     1  LIG  -0.0388   0.1382 
22    C19      7.9638   -4.5606    4.4371 C.2     1  LIG  -0.2193  -0.2882 
23    C20      9.0061   -5.1759    3.8657 C.2     1  LIG  -0.1470  -0.3000 
24    H1       5.0920  -12.1563   -1.6998 H       1  LIG   0.0744   0.0000 
25    H2       3.3771  -12.1790   -1.2714 H       1  LIG   0.0362   0.0000 
26    H3       3.9348  -11.4140   -2.8111 H       1  LIG   0.0432   0.0000 
27    H4       1.8069  -10.6134   -2.1168 H       1  LIG   0.1508   0.1500 
28    H5       0.0831   -8.9217   -1.8944 H       1  LIG   0.1618   0.1500 
29    H6       4.5352   -8.1381    0.0859 H       1  LIG   0.1584   0.1500 
30    H7       1.7922   -4.1826    1.0429 H       1  LIG   0.1403   0.1500 
31    H8      -0.3686   -4.8125   -0.0033 H       1  LIG   0.0327   0.1500 
32    H9       3.2244   -5.7939    3.0195 H       1  LIG   0.0630   0.0000 
33    H10      3.7947   -4.1741    2.5458 H       1  LIG   0.0726   0.0000 
34    H11      6.1549   -5.0630    2.5717 H       1  LIG   0.0921   0.0000 
35    H12      5.5609   -6.6060    3.1608 H       1  LIG   0.0574   0.0000 
36    H13      5.2685   -3.9096    4.5784 H       1  LIG   0.0695   0.0000 
37    H14      3.3963   -5.3976    5.1891 H       1  LIG   0.1035   0.0000 
38    H15      4.4910   -6.7462    5.4761 H       1  LIG   0.0749   0.0000 
39    H16      4.3349   -4.1433    7.1104 H       1  LIG   0.1059   0.0000 
40    H17      3.8337   -5.7753    7.6319 H       1  LIG   0.1048   0.0000 
41    H18      6.7911   -3.7284    6.7789 H       1  LIG   0.1075   0.0000 
42    H19      7.9088   -5.0696    7.1322 H       1  LIG   0.1079   0.0000 
43    H20      7.0775   -6.3590    5.1432 H       1  LIG   0.0740   0.0000 
44    H21      7.8836   -3.4799    4.3392 H       1  LIG   0.1406   0.1500 
45    H22      9.7489   -4.6054    3.3181 H       1  LIG   0.1454   0.1500 
46    H23      9.1382   -6.2506    3.9279 H       1  LIG   0.1240   0.1500 
47    N2       5.8972   -5.4928    7.4704 N.4     1  LIG  -0.7612  -0.9060 
48    H24      5.9760   -5.1990    8.4538 H       1  LIG   0.4539   0.4500 
49    H25      6.0681   -6.5083    7.4708 H       1  LIG   0.4503   0.4500 
@<TRIPOS>BOND
1     1     2     1
2     1     24    1
3     1     25    1
4     1     26    1
5     2     3     1
6     3     8     ar
7     3     4     ar
8     4     5     ar
9     4     27    1
10    5     6     ar
11    5     28    1
12    6     12    ar
13    6     7     ar
14    7     8     ar
15    7     9     ar
16    8     29    1
17    9     10    ar
18    9     13    1
19    10    11    ar
20    10    30    1
21    11    12    ar
22    11    31    1
23    13    14    2
24    13    15    1
25    15    16    1
26    15    32    1
27    15    33    1
28    16    17    1
29    16    34    1
30    16    35    1
31    17    21    1
32    17    18    1
33    17    36    1
34    18    19    1
35    18    37    1
36    18    38    1
37    19    39    1
38    19    40    1
39    19    47    1
40    20    21    1
41    20    41    1
42    20    42    1
43    20    47    1
44    21    22    1
45    21    43    1
46    22    23    2
47    22    44    1
48    23    45    1
49    23    46    1
50    47    48    1
51    47    49    1
@<TRIPOS>SUBSTRUCTURE
1   LIG    1    
 
########## Number      : 127
########## Name        : ZINC00000847
########## Description : AM1BCC_CHARGES =  -0.0000 ORIGINAL_CHARGES =   0.0000

@<TRIPOS>MOLECULE
ZINC00000847
49    53    1     0     0    
SMALL
USER_CHARGES
****
****
@<TRIPOS>ATOM
1     C1       2.2436    8.5462    9.1810 C.ar    1  LIG  -0.1449  -0.1500 
2     C2       0.8836    8.2441    9.1888 C.ar    1  LIG  -0.1014  -0.1500 
3     C3       0.3294    7.3906    8.2306 C.ar    1  LIG  -0.1366  -0.1500 
4     C4       1.1892    6.8516    7.2666 C.ar    1  LIG  -0.0358  -0.1516 
5     C5       2.5581    7.1357    7.2353 C.ar    1  LIG  -0.0794   0.0000 
6     C6       3.0925    8.0008    8.2111 C.ar    1  LIG  -0.0817  -0.1500 
7     C7       3.1007    6.4209    6.1333 C.2     1  LIG  -0.1333  -0.1810 
8     C8       2.0734    5.7276    5.5331 C.2     1  LIG  -0.1108  -0.3316 
9     N1       0.9205    5.9988    6.2172 N.pl3   1  LIG  -0.1570   0.0332 
10    C9       2.1742    4.8581    4.3245 C.3     1  LIG   0.2148   0.6830 
11    C10      1.7755    3.4043    4.6127 C.3     1  LIG  -0.1107   0.0000 
12    C11      1.5996    2.6579    3.2693 C.3     1  LIG  -0.0411   0.0000 
13    C12      2.6491    3.0987    2.2214 C.3     1  LIG  -0.0505   0.0000 
14    C13      3.0541    2.0126    1.2098 C.3     1  LIG  -0.0848   0.0000 
15    C14      1.9178    1.0497    0.9127 C.3     1  LIG  -0.1045   0.0000 
16    C15      1.3236    0.3741    2.1584 C.3     1  LIG   0.1706   0.2800 
17    C16      1.5467    1.1170    3.4863 C.3     1  LIG  -0.1800  -0.1060 
18    C17      2.7865    0.5864    4.2569 C.2     1  LIG   0.9282   0.9060 
19    O1       3.8690    0.4587    3.6284 O.co2   1  LIG  -0.8433  -0.9000 
20    O2       1.8156   -0.9536    2.2610 O.3     1  LIG  -0.5563  -0.6800 
21    C18      3.8961    3.6509    2.9067 C.3     1  LIG   0.0675   0.5030 
22    C19      4.6800    5.0438    4.8295 C.3     1  LIG   0.1075   0.5030 
23    C20      4.4851    6.3489    5.6075 C.3     1  LIG  -0.0289   0.1810 
24    H1       0.0054    5.6306    5.9953 H       1  LIG   0.3055   0.2700 
25    H2       1.5826   -1.4225    1.4423 H       1  LIG   0.3827   0.4000 
26    H3       2.6516    9.2131    9.9361 H       1  LIG   0.1378   0.1500 
27    H4       0.2420    8.6788    9.9513 H       1  LIG   0.1383   0.1500 
28    H5      -0.7303    7.1579    8.2381 H       1  LIG   0.1416   0.1500 
29    H6       4.1507    8.2456    8.2173 H       1  LIG   0.1370   0.1500 
30    H7       1.4664    5.2535    3.5715 H       1  LIG   0.0867   0.0000 
31    H8       2.5266    2.9414    5.2609 H       1  LIG   0.1399   0.0000 
32    H9       0.8281    3.3564    5.1649 H       1  LIG   0.0630   0.0000 
33    H10      0.6087    2.9910    2.8975 H       1  LIG   0.0369   0.0000 
34    H11      2.1688    3.8824    1.6054 H       1  LIG   0.0235   0.0000 
35    H12      3.3594    2.5017    0.2750 H       1  LIG   0.0270   0.0000 
36    H13      3.9394    1.4581    1.5314 H       1  LIG   0.1240   0.0000 
37    H14      1.1211    1.6242    0.4209 H       1  LIG   0.0288   0.0000 
38    H15      2.2542    0.3029    0.1839 H       1  LIG   0.0448   0.0000 
39    H16      0.2344    0.3454    1.9816 H       1  LIG   0.0068   0.0000 
40    H17      0.6509    0.9544    4.1187 H       1  LIG   0.0653   0.0000 
41    H18      4.3635    2.9129    3.5645 H       1  LIG   0.2019   0.0000 
42    H19      4.6436    3.9667    2.1701 H       1  LIG   0.0705   0.0000 
43    H20      4.6136    4.1665    5.4838 H       1  LIG   0.1435   0.0000 
44    H21      5.6477    5.0445    4.3166 H       1  LIG   0.0931   0.0000 
45    H22      4.6694    7.2074    4.9509 H       1  LIG   0.0582   0.0000 
46    H23      5.2118    6.3959    6.4259 H       1  LIG   0.0969   0.0000 
47    O3       2.5519    0.3401    5.4785 O.co2   1  LIG  -0.8128  -0.9000 
48    N2       3.5981    4.8858    3.7377 N.4     1  LIG  -0.6669  -0.9590 
49    H24      3.7030    5.7329    3.1516 H       1  LIG   0.4184   0.4500 
@<TRIPOS>BOND
1     1     6     ar
2     1     2     ar
3     1     26    1
4     2     3     ar
5     2     27    1
6     3     4     ar
7     3     28    1
8     4     9     1
9     4     5     ar
10    5     6     ar
11    5     7     1
12    6     29    1
13    7     23    1
14    7     8     2
15    8     9     1
16    8     10    1
17    9     24    1
18    10    11    1
19    10    30    1
20    10    48    1
21    11    12    1
22    11    31    1
23    11    32    1
24    12    17    1
25    12    13    1
26    12    33    1
27    13    14    1
28    13    21    1
29    13    34    1
30    14    15    1
31    14    35    1
32    14    36    1
33    15    16    1
34    15    37    1
35    15    38    1
36    16    17    1
37    16    20    1
38    16    39    1
39    17    18    1
40    17    40    1
41    18    19    2
42    18    47    1
43    20    25    1
44    21    41    1
45    21    42    1
46    21    48    1
47    22    23    1
48    22    43    1
49    22    44    1
50    22    48    1
51    23    45    1
52    23    46    1
53    48    49    1
@<TRIPOS>SUBSTRUCTURE
1   LIG    1    
 
########## Number      : 128
########## Name        : ZINC00000852
########## Description : AM1BCC_CHARGES =   0.9999 ORIGINAL_CHARGES =   1.0000

@<TRIPOS>MOLECULE
ZINC00000852
38    39    1     0     0    
SMALL
USER_CHARGES
****
****
@<TRIPOS>ATOM
1     C1       4.3616   -7.3110    2.2017 C.3     1  LIG  -0.1384   0.0000 
2     C2       3.3336   -6.5109    1.4289 C.3     1  LIG   0.1077   0.5030 
3     C3       3.0396   -4.3319    0.1884 C.3     1  LIG   0.1111   0.5030 
4     C4       3.6825   -4.0467   -1.1925 C.3     1  LIG  -0.0563   0.1435 
5     C5       3.8225   -5.2741   -2.0630 C.ar    1  LIG  -0.1477  -0.1435 
6     C6       5.0860   -5.8196   -2.3289 C.ar    1  LIG  -0.1535  -0.1500 
7     C7       5.2111   -6.9608   -3.1229 C.ar    1  LIG  -0.1154  -0.1500 
8     C8       4.0769   -7.5651   -3.6614 C.ar    1  LIG  -0.1040  -0.1500 
9     C9       2.8164   -7.0275   -3.4093 C.ar    1  LIG  -0.1142  -0.1500 
10    C10      2.6888   -5.8867   -2.6155 C.ar    1  LIG  -0.1188  -0.1500 
11    C11      2.8023   -3.0225    0.9660 C.3     1  LIG   0.1226   0.2800 
12    C12      2.1462   -3.2304    2.3288 C.3     1  LIG  -0.1185   0.0000 
13    C13      1.4783   -1.8936    2.5365 C.3     1  LIG  -0.1065   0.0000 
14    C14      1.0069   -1.5565    1.1373 C.3     1  LIG   0.1218   0.2800 
15    O1       1.9273   -2.1730    0.2244 O.3     1  LIG  -0.4089  -0.5600 
16    H1       3.9284   -8.2584    2.5370 H       1  LIG   0.1018   0.0000 
17    H2       5.2340   -7.5387    1.5804 H       1  LIG   0.0693   0.0000 
18    H3       4.7055   -6.7640    3.0857 H       1  LIG   0.0656   0.0000 
19    H4       2.4713   -6.2650    2.0550 H       1  LIG   0.1010   0.0000 
20    H5       3.0079   -7.0479    0.5330 H       1  LIG   0.1126   0.0000 
21    H6       2.0752   -4.8361    0.0047 H       1  LIG   0.1154   0.0000 
22    H7       3.0766   -3.3192   -1.7479 H       1  LIG   0.1262   0.0000 
23    H8       4.6626   -3.5707   -1.0552 H       1  LIG   0.0741   0.0000 
24    H9       5.9832   -5.3611   -1.9204 H       1  LIG   0.1282   0.1500 
25    H10      6.1943   -7.3774   -3.3230 H       1  LIG   0.1519   0.1500 
26    H11      4.1756   -8.4523   -4.2803 H       1  LIG   0.1559   0.1500 
27    H12      1.9322   -7.4957   -3.8326 H       1  LIG   0.1545   0.1500 
28    H13      1.6979   -5.4781   -2.4326 H       1  LIG   0.1420   0.1500 
29    H14      3.7746   -2.5272    1.1305 H       1  LIG   0.0729   0.0000 
30    H15      1.3827   -4.0161    2.2823 H       1  LIG   0.0411   0.0000 
31    H16      2.8577   -3.4825    3.1198 H       1  LIG   0.0708   0.0000 
32    H17      0.6654   -1.9159    3.2669 H       1  LIG   0.0739   0.0000 
33    H18      2.2184   -1.1563    2.8694 H       1  LIG   0.0791   0.0000 
34    H19      0.0144   -1.9762    0.9420 H       1  LIG   0.0700   0.0000 
35    H20      0.9723   -0.4789    0.9544 H       1  LIG   0.0771   0.0000 
36    N1       3.9553   -5.2236    0.9848 N.4     1  LIG  -0.7655  -0.9060 
37    H21      4.7941   -5.4481    0.4324 H       1  LIG   0.4598   0.4500 
38    H22      4.3179   -4.7246    1.8088 H       1  LIG   0.4412   0.4500 
@<TRIPOS>BOND
1     1     2     1
2     1     16    1
3     1     17    1
4     1     18    1
5     2     19    1
6     2     20    1
7     2     36    1
8     3     4     1
9     3     11    1
10    3     21    1
11    3     36    1
12    4     5     1
13    4     22    1
14    4     23    1
15    5     10    ar
16    5     6     ar
17    6     7     ar
18    6     24    1
19    7     8     ar
20    7     25    1
21    8     9     ar
22    8     26    1
23    9     10    ar
24    9     27    1
25    10    28    1
26    11    15    1
27    11    12    1
28    11    29    1
29    12    13    1
30    12    30    1
31    12    31    1
32    13    14    1
33    13    32    1
34    13    33    1
35    14    15    1
36    14    34    1
37    14    35    1
38    36    37    1
39    36    38    1
@<TRIPOS>SUBSTRUCTURE
1   LIG    1    
 
########## Number      : 129
########## Name        : ZINC00000855
########## Description : AM1BCC_CHARGES =   0.9999 ORIGINAL_CHARGES =   1.0000

@<TRIPOS>MOLECULE
ZINC00000855
41    44    1     0     0    
SMALL
USER_CHARGES
****
****
@<TRIPOS>ATOM
1     C1       3.3951    6.7949   -5.4861 C.3     1  LIG   0.0840   0.5030 
2     C2       4.2369    4.4885   -5.9321 C.3     1  LIG   0.1020   0.5030 
3     C3       3.8180    3.1088   -6.4251 C.3     1  LIG   0.1720   0.3691 
4     N1       2.7442    2.5643   -5.5791 N.pl3   1  LIG  -0.6579  -0.8382 
5     C4       2.6583    1.1731   -5.5130 C.ar    1  LIG   0.1015   0.1000 
6     C5       2.9338    0.3402   -6.6113 C.ar    1  LIG  -0.1579  -0.1500 
7     C6       2.8789   -1.0516   -6.4996 C.ar    1  LIG  -0.1051  -0.1500 
8     C7       2.5497   -1.6416   -5.2845 C.ar    1  LIG  -0.1159  -0.1500 
9     C8       2.2712   -0.8406   -4.1811 C.ar    1  LIG  -0.1040  -0.1500 
10    C9       2.3283    0.5573   -4.2892 C.ar    1  LIG  -0.0663  -0.1435 
11    C10      1.9809    1.4300   -3.1108 C.3     1  LIG   0.0076   0.2870 
12    C11      0.6561    2.0985   -3.3625 C.ar    1  LIG  -0.0363  -0.1435 
13    C12     -0.4181    1.8041   -2.5015 C.ar    1  LIG  -0.1225  -0.1500 
14    C13     -1.6880    2.3267   -2.7329 C.ar    1  LIG  -0.0970  -0.1500 
15    C14     -1.9045    3.1465   -3.8314 C.ar    1  LIG  -0.1197  -0.1500 
16    C15     -0.8472    3.4497   -4.6895 C.ar    1  LIG  -0.1312  -0.1500 
17    C16      0.4533    2.9386   -4.4764 C.ar    1  LIG  -0.1183  -0.1435 
18    C17      1.5438    3.4331   -5.4475 C.3     1  LIG   0.2681   0.5126 
19    C18      2.0035    4.8113   -4.9450 C.3     1  LIG   0.0949   0.5030 
20    H1       4.1215    7.1742   -6.2096 H       1  LIG   0.1019   0.0000 
21    H2       2.4864    7.4019   -5.5172 H       1  LIG   0.1033   0.0000 
22    H3       3.8200    6.7721   -4.4790 H       1  LIG   0.1069   0.0000 
23    H4       4.9621    4.9403   -6.6167 H       1  LIG   0.1009   0.0000 
24    H5       4.6609    4.4490   -4.9219 H       1  LIG   0.1155   0.0000 
25    H6       3.4788    3.1683   -7.4671 H       1  LIG   0.0411   0.0000 
26    H7       4.7072    2.4661   -6.3963 H       1  LIG   0.1149   0.0000 
27    H8       3.1859    0.7644   -7.5802 H       1  LIG   0.1299   0.1500 
28    H9       3.0925   -1.6730   -7.3648 H       1  LIG   0.1484   0.1500 
29    H10      2.5042   -2.7232   -5.1981 H       1  LIG   0.1516   0.1500 
30    H11      2.0030   -1.3101   -3.2381 H       1  LIG   0.1476   0.1500 
31    H12      1.9504    0.8286   -2.1934 H       1  LIG   0.0696   0.0000 
32    H13      2.7601    2.1828   -2.9373 H       1  LIG   0.0650   0.0000 
33    H14     -0.2722    1.1474   -1.6466 H       1  LIG   0.1493   0.1500 
34    H15     -2.5066    2.0864   -2.0609 H       1  LIG   0.1533   0.1500 
35    H16     -2.8927    3.5557   -4.0201 H       1  LIG   0.1503   0.1500 
36    H17     -1.0439    4.1079   -5.5341 H       1  LIG   0.1243   0.1500 
37    H18      1.0462    3.4866   -6.4319 H       1  LIG   0.0444   0.0000 
38    H19      2.4602    4.7615   -3.9480 H       1  LIG   0.1176   0.0000 
39    H20      1.1688    5.5212   -4.9152 H       1  LIG   0.1047   0.0000 
40    N2       3.0298    5.3880   -5.8910 N.4     1  LIG  -0.6815  -0.9590 
41    H21      2.6430    5.4819   -6.8459 H       1  LIG   0.4429   0.4500 
@<TRIPOS>BOND
1     1     20    1
2     1     21    1
3     1     22    1
4     1     40    1
5     2     3     1
6     2     23    1
7     2     24    1
8     2     40    1
9     3     4     1
10    3     25    1
11    3     26    1
12    4     18    1
13    4     5     1
14    5     10    ar
15    5     6     ar
16    6     7     ar
17    6     27    1
18    7     8     ar
19    7     28    1
20    8     9     ar
21    8     29    1
22    9     10    ar
23    9     30    1
24    10    11    1
25    11    12    1
26    11    31    1
27    11    32    1
28    12    17    ar
29    12    13    ar
30    13    14    ar
31    13    33    1
32    14    15    ar
33    14    34    1
34    15    16    ar
35    15    35    1
36    16    17    ar
37    16    36    1
38    17    18    1
39    18    19    1
40    18    37    1
41    19    38    1
42    19    39    1
43    19    40    1
44    40    41    1
@<TRIPOS>SUBSTRUCTURE
1   LIG    1    
 
########## Number      : 130
########## Name        : ZINC00000856
########## Description : AM1BCC_CHARGES =   1.0001 ORIGINAL_CHARGES =   1.0000

@<TRIPOS>MOLECULE
ZINC00000856
50    51    1     0     0    
SMALL
USER_CHARGES
****
****
@<TRIPOS>ATOM
1     C1       8.8302  -11.6261    3.6320 C.3     1  LIG  -0.1362   0.0000 
2     C2       7.8952  -10.6231    2.9513 C.3     1  LIG   0.1296   0.5030 
3     C3       7.4997  -11.1388    1.5533 C.3     1  LIG  -0.0475   0.1435 
4     C4       6.6698  -10.1688    0.7494 C.ar    1  LIG  -0.1925  -0.1435 
5     C5       7.2534   -9.0233    0.1935 C.ar    1  LIG  -0.0783  -0.1500 
6     C6       6.4793   -8.0991   -0.5158 C.ar    1  LIG  -0.1997  -0.1500 
7     C7       5.1094   -8.3105   -0.6807 C.ar    1  LIG   0.1565   0.0825 
8     C8       4.5262   -9.4588   -0.1372 C.ar    1  LIG  -0.1557  -0.1500 
9     C9       5.2981  -10.3822    0.5705 C.ar    1  LIG  -0.1068  -0.1500 
10    O1       4.2433   -7.4821   -1.3429 O.3     1  LIG  -0.3151  -0.3625 
11    C10      4.7925   -6.2942   -1.9011 C.3     1  LIG   0.1068   0.2800 
12    C11      6.1941   -9.0471    3.9635 C.3     1  LIG   0.0970   0.5030 
13    C12      4.8044   -9.0436    4.6020 C.3     1  LIG   0.1904   0.4235 
14    C13      4.2140   -7.6467    4.5388 C.ar    1  LIG  -0.1641  -0.1435 
15    C14      3.3066   -7.3219    3.5259 C.ar    1  LIG  -0.1055  -0.1500 
16    C15      2.7803   -6.0343    3.4381 C.ar    1  LIG  -0.1719  -0.1500 
17    C16      3.1562   -5.0479    4.3585 C.ar    1  LIG   0.1085   0.0825 
18    C17      4.0693   -5.3389    5.3790 C.ar    1  LIG   0.0871   0.1170 
19    C18      4.5905   -6.6453    5.4499 C.ar    1  LIG  -0.1594  -0.1500 
20    N1       4.5412   -4.4449    6.3709 N.am    1  LIG  -0.4858  -0.5470 
21    C19      4.2369   -3.1248    6.5723 C.2     1  LIG   0.6650   0.5700 
22    O2       4.7120   -2.4407    7.4752 O.2     1  LIG  -0.5598  -0.5700 
23    O3       2.6049   -3.8058    4.2204 O.3     1  LIG  -0.5026  -0.5325 
24    O4       4.9155   -9.4461    5.9600 O.3     1  LIG  -0.6321  -0.6800 
25    H1       5.2040   -4.8307    7.0379 H       1  LIG   0.3213   0.3700 
26    H2       1.9961   -3.8040    3.4624 H       1  LIG   0.4409   0.4500 
27    H3       4.8742  -10.4168    5.9887 H       1  LIG   0.4522   0.4000 
28    H4       9.7409  -11.7690    3.0407 H       1  LIG   0.0968   0.0000 
29    H5       9.1296  -11.2685    4.6232 H       1  LIG   0.0672   0.0000 
30    H6       8.3490  -12.6027    3.7546 H       1  LIG   0.0685   0.0000 
31    H7       8.4381   -9.6661    2.8843 H       1  LIG   0.1072   0.0000 
32    H8       8.4074  -11.3608    0.9758 H       1  LIG   0.1007   0.0000 
33    H9       6.9702  -12.0973    1.6395 H       1  LIG   0.0714   0.0000 
34    H10      8.3179   -8.8361    0.3150 H       1  LIG   0.1401   0.1500 
35    H11      6.9782   -7.2250   -0.9230 H       1  LIG   0.1580   0.1500 
36    H12      3.4610   -9.6401   -0.2609 H       1  LIG   0.1661   0.1500 
37    H13      4.8162  -11.2638    0.9857 H       1  LIG   0.1307   0.1500 
38    H14      3.9785   -5.7454   -2.3846 H       1  LIG   0.0860   0.0000 
39    H15      5.2119   -5.6491   -1.1219 H       1  LIG   0.0376   0.0000 
40    H16      5.5386   -6.5269   -2.6680 H       1  LIG   0.0491   0.0000 
41    H17      6.9404   -8.5462    4.5901 H       1  LIG   0.1124   0.0000 
42    H18      6.1777   -8.5842    2.9737 H       1  LIG   0.1268   0.0000 
43    H19      4.1177   -9.7196    4.0679 H       1  LIG   0.0604   0.0000 
44    H20      3.0031   -8.0663    2.7937 H       1  LIG   0.1430   0.1500 
45    H21      2.0751   -5.8105    2.6414 H       1  LIG   0.1544   0.1500 
46    H22      5.3088   -6.8926    6.2311 H       1  LIG   0.1449   0.1500 
47    H23      3.5257   -2.6877    5.8674 H       1  LIG   0.0873   0.0600 
48    N2       6.6672  -10.4657    3.7991 N.4     1  LIG  -0.7560  -0.9060 
49    H24      5.9078  -11.0479    3.4200 H       1  LIG   0.4447   0.4500 
50    H25      6.8463  -10.8396    4.7416 H       1  LIG   0.4605   0.4500 
@<TRIPOS>BOND
1     1     2     1
2     1     28    1
3     1     29    1
4     1     30    1
5     2     3     1
6     2     31    1
7     2     48    1
8     3     4     1
9     3     32    1
10    3     33    1
11    4     9     ar
12    4     5     ar
13    5     6     ar
14    5     34    1
15    6     7     ar
16    6     35    1
17    7     8     ar
18    7     10    1
19    8     9     ar
20    8     36    1
21    9     37    1
22    10    11    1
23    11    38    1
24    11    39    1
25    11    40    1
26    12    13    1
27    12    41    1
28    12    42    1
29    12    48    1
30    13    14    1
31    13    24    1
32    13    43    1
33    14    19    ar
34    14    15    ar
35    15    16    ar
36    15    44    1
37    16    17    ar
38    16    45    1
39    17    18    ar
40    17    23    1
41    18    19    ar
42    18    20    1
43    19    46    1
44    20    21    am
45    20    25    1
46    21    22    2
47    21    47    1
48    23    26    1
49    24    27    1
50    48    49    1
51    48    50    1
@<TRIPOS>SUBSTRUCTURE
1   LIG    1    
 
########## Number      : 131
########## Name        : ZINC00000861
########## Description : AM1BCC_CHARGES =   0.0001 ORIGINAL_CHARGES =   0.0000

@<TRIPOS>MOLECULE
ZINC00000861
39    40    1     0     0    
SMALL
USER_CHARGES
****
****
@<TRIPOS>ATOM
1     C1      10.4663    0.5952   -3.7368 C.3     1  LIG  -0.1797   0.0610 
2     C2       9.0902   -0.0150   -3.6445 C.2     1  LIG   0.6683   0.5690 
3     O1       8.7343   -0.6134   -2.6347 O.2     1  LIG  -0.5735  -0.5700 
4     N1       8.3634    0.2048   -4.8067 N.am    1  LIG  -0.4768  -0.5470 
5     C3       7.0427   -0.2162   -5.0879 C.ar    1  LIG   0.1370   0.1170 
6     C4       6.2453   -0.9479   -4.2015 C.ar    1  LIG  -0.1915  -0.1500 
7     C5       4.9476   -1.3234   -4.5612 C.ar    1  LIG   0.0204  -0.1500 
8     C6       4.4470   -0.9633   -5.8112 C.ar    1  LIG  -0.4126  -0.0090 
9     C7       5.2238   -0.2390   -6.7094 C.ar    1  LIG   0.0070  -0.1500 
10    C8       6.5191    0.1322   -6.3432 C.ar    1  LIG  -0.2194  -0.1500 
11    S1       2.8007   -1.4407   -6.2415 S.o2    1  LIG   1.4520   1.3180 
12    O2       2.4350   -0.7589   -7.4688 O.2     1  LIG  -0.6641  -0.6500 
13    O3       2.7777   -2.8894   -6.1668 O.2     1  LIG  -0.6640  -0.6500 
14    C9       1.7187   -0.8041   -4.9974 C.ar    1  LIG  -0.4125  -0.0090 
15    C10      1.7289    0.5642   -4.7321 C.ar    1  LIG   0.0205  -0.1500 
16    C11      0.8847    1.0838   -3.7464 C.ar    1  LIG  -0.1912  -0.1500 
17    C12      0.0306    0.2403   -3.0280 C.ar    1  LIG   0.1371   0.1170 
18    C13      0.0345   -1.1341   -3.3148 C.ar    1  LIG  -0.2194  -0.1500 
19    C14      0.8750   -1.6605   -4.2978 C.ar    1  LIG   0.0068  -0.1500 
20    N2      -0.8540    0.6799   -2.0158 N.am    1  LIG  -0.4766  -0.5470 
21    C15     -1.0346    1.9779   -1.5576 C.2     1  LIG   0.6680   0.5690 
22    O4      -0.4657    2.9967   -1.9355 O.2     1  LIG  -0.5738  -0.5700 
23    C16     -2.0738    2.0325   -0.4660 C.3     1  LIG  -0.1795   0.0610 
24    H1       8.8232    0.7282   -5.5476 H       1  LIG   0.3193   0.3700 
25    H2      -1.4167   -0.0466   -1.5803 H       1  LIG   0.3192   0.3700 
26    H3      11.0190    0.4031   -2.8129 H       1  LIG   0.0855   0.0000 
27    H4      11.0133    0.1536   -4.5746 H       1  LIG   0.0655   0.0000 
28    H5      10.3841    1.6761   -3.8821 H       1  LIG   0.0658   0.0000 
29    H6       6.5970   -1.2473   -3.2208 H       1  LIG   0.1797   0.1500 
30    H7       4.3478   -1.8953   -3.8582 H       1  LIG   0.1435   0.1500 
31    H8       4.8492    0.0445   -7.6883 H       1  LIG   0.1633   0.1500 
32    H9       7.1171    0.6993   -7.0536 H       1  LIG   0.1363   0.1500 
33    H10      2.3808    1.2389   -5.2805 H       1  LIG   0.1437   0.1500 
34    H11      0.9229    2.1529   -3.5704 H       1  LIG   0.1797   0.1500 
35    H12     -0.6205   -1.8136   -2.7734 H       1  LIG   0.1362   0.1500 
36    H13      0.8525   -2.7277   -4.4967 H       1  LIG   0.1632   0.1500 
37    H14     -2.2010    3.0646   -0.1274 H       1  LIG   0.0854   0.0000 
38    H15     -3.0312    1.6642   -0.8455 H       1  LIG   0.0664   0.0000 
39    H16     -1.7551    1.4186    0.3812 H       1  LIG   0.0649   0.0000 
@<TRIPOS>BOND
1     1     2     1
2     1     26    1
3     1     27    1
4     1     28    1
5     2     3     2
6     2     4     am
7     4     5     1
8     4     24    1
9     5     10    ar
10    5     6     ar
11    6     7     ar
12    6     29    1
13    7     8     ar
14    7     30    1
15    8     9     ar
16    8     11    1
17    9     10    ar
18    9     31    1
19    10    32    1
20    11    12    2
21    11    13    2
22    11    14    1
23    14    19    ar
24    14    15    ar
25    15    16    ar
26    15    33    1
27    16    17    ar
28    16    34    1
29    17    18    ar
30    17    20    1
31    18    19    ar
32    18    35    1
33    19    36    1
34    20    21    am
35    20    25    1
36    21    22    2
37    21    23    1
38    23    37    1
39    23    38    1
40    23    39    1
@<TRIPOS>SUBSTRUCTURE
1   LIG    1    
 
########## Number      : 132
########## Name        : ZINC00000862
########## Description : AM1BCC_CHARGES =  -1.0000 ORIGINAL_CHARGES =  -1.0000

@<TRIPOS>MOLECULE
ZINC00000862
34    35    1     0     0    
SMALL
USER_CHARGES
****
****
@<TRIPOS>ATOM
1     C1       5.8734   -8.8549   -0.4710 C.ar    1  LIG  -0.2271  -0.1500 
2     C2       4.7377   -8.1549   -0.0580 C.ar    1  LIG   0.0082  -0.1500 
3     C3       4.8484   -6.8017    0.2503 C.ar    1  LIG  -0.3829  -0.0090 
4     C4       6.0707   -6.1400    0.1447 C.ar    1  LIG   0.0279  -0.1500 
5     C5       7.1989   -6.8504   -0.2689 C.ar    1  LIG  -0.2245  -0.1500 
6     C6       7.1163   -8.2158   -0.5710 C.ar    1  LIG   0.1881   0.1000 
7     N1       8.2347   -8.9115   -1.0047 N.pl3   1  LIG  -0.8297  -0.9000 
8     S1       3.4295   -5.8925    0.7837 S.o2    1  LIG   1.4671   1.3180 
9     O1       3.2581   -4.8257   -0.1846 O.2     1  LIG  -0.6859  -0.6500 
10    O2       2.3563   -6.8341    1.0418 O.2     1  LIG  -0.6868  -0.6500 
11    C7       3.8192   -5.1665    2.3467 C.ar    1  LIG  -0.5458  -0.0090 
12    C8       4.2309   -5.9929    3.3891 C.ar    1  LIG   0.0531  -0.1500 
13    C9       4.5509   -5.4289    4.6273 C.ar    1  LIG  -0.2684  -0.1500 
14    C10      4.4640   -4.0450    4.8428 C.ar    1  LIG   0.2809   0.1000 
15    C11      4.0406   -3.2420    3.7692 C.ar    1  LIG  -0.2755  -0.1500 
16    C12      3.7175   -3.7917    2.5258 C.ar    1  LIG   0.0379  -0.1500 
17    N2       4.7717   -3.4423    6.0495 N.pl3   1  LIG  -0.6957  -0.8691 
18    C13      5.2184   -4.1569    7.2270 C.3     1  LIG   0.0481   0.2631 
19    C14      5.4764   -3.1981    8.3908 C.2     1  LIG   0.9186   0.9060 
20    O3       5.2745   -1.9702    8.1719 O.co2   1  LIG  -0.8343  -0.9000 
21    H1       9.1389   -8.4594   -1.0310 H       1  LIG   0.3945   0.4000 
22    H2       8.1821   -9.9066   -1.1770 H       1  LIG   0.3930   0.4000 
23    H3       4.6834   -2.4334    6.1275 H       1  LIG   0.4678   0.4000 
24    H4       5.7812   -9.9110   -0.7149 H       1  LIG   0.1291   0.1500 
25    H5       3.7898   -8.6798    0.0115 H       1  LIG   0.1588   0.1500 
26    H6       6.1619   -5.0819    0.3734 H       1  LIG   0.1431   0.1500 
27    H7       8.1491   -6.3280   -0.3538 H       1  LIG   0.1316   0.1500 
28    H8       4.3068   -7.0689    3.2604 H       1  LIG   0.1208   0.1500 
29    H9       4.8704   -6.0961    5.4241 H       1  LIG   0.1420   0.1500 
30    H10      3.9587   -2.1642    3.8984 H       1  LIG   0.1343   0.1500 
31    H11      3.3937   -3.1335    1.7255 H       1  LIG   0.1415   0.1500 
32    H12      4.4572   -4.8785    7.5453 H       1  LIG   0.0406   0.0000 
33    H13      6.1519   -4.6915    7.0161 H       1  LIG   0.0390   0.0000 
34    O4       5.8690   -3.7664    9.4516 O.co2   1  LIG  -0.8094  -0.9000 
@<TRIPOS>BOND
1     1     6     ar
2     1     2     ar
3     1     24    1
4     2     3     ar
5     2     25    1
6     3     4     ar
7     3     8     1
8     4     5     ar
9     4     26    1
10    5     6     ar
11    5     27    1
12    6     7     1
13    7     21    1
14    7     22    1
15    8     9     2
16    8     10    2
17    8     11    1
18    11    16    ar
19    11    12    ar
20    12    13    ar
21    12    28    1
22    13    14    ar
23    13    29    1
24    14    15    ar
25    14    17    1
26    15    16    ar
27    15    30    1
28    16    31    1
29    17    18    1
30    17    23    1
31    18    19    1
32    18    32    1
33    18    33    1
34    19    20    2
35    19    34    1
@<TRIPOS>SUBSTRUCTURE
1   LIG    1    
 
########## Number      : 133
########## Name        : ZINC00000864
########## Description : AM1BCC_CHARGES =   0.0000 ORIGINAL_CHARGES =  -0.0000

@<TRIPOS>MOLECULE
ZINC00000864
20    20    1     0     0    
SMALL
USER_CHARGES
****
****
@<TRIPOS>ATOM
1     C1       5.9150  -10.1044   -1.9663 C.3     1  LIG  -0.1786   0.0610 
2     C2       4.9940   -9.1334   -1.2711 C.2     1  LIG   0.6652   0.5690 
3     O1       4.5605   -9.3717   -0.1488 O.2     1  LIG  -0.5928  -0.5700 
4     N1       4.7479   -8.0194   -2.0621 N.am    1  LIG  -0.4724  -0.5470 
5     C3       3.9371   -6.9038   -1.7483 C.ar    1  LIG   0.0361   0.1170 
6     C4       3.2365   -6.7536   -0.5467 C.ar    1  LIG  -0.1173  -0.1500 
7     C5       2.4562   -5.6150   -0.3189 C.ar    1  LIG  -0.1864  -0.1500 
8     C6       2.3760   -4.6248   -1.2936 C.ar    1  LIG   0.0964   0.0825 
9     C7       3.0649   -4.7568   -2.4931 C.ar    1  LIG  -0.1301  -0.1500 
10    C8       3.8431   -5.8939   -2.7184 C.ar    1  LIG  -0.1522  -0.1500 
11    O2       1.6226   -3.5024   -1.1001 O.3     1  LIG  -0.4987  -0.5325 
12    H1       5.1967   -7.9912   -2.9742 H       1  LIG   0.3136   0.3700 
13    H2       1.2064   -3.5560   -0.2229 H       1  LIG   0.4181   0.4500 
14    H3       6.0925  -10.9711   -1.3234 H       1  LIG   0.0820   0.0000 
15    H4       5.4597  -10.4443   -2.9009 H       1  LIG   0.0616   0.0000 
16    H5       6.8723   -9.6204   -2.1802 H       1  LIG   0.0616   0.0000 
17    H6       3.2707   -7.4996    0.2391 H       1  LIG   0.1764   0.1500 
18    H7       1.9199   -5.5172    0.6207 H       1  LIG   0.1368   0.1500 
19    H8       3.0023   -3.9840   -3.2538 H       1  LIG   0.1505   0.1500 
20    H9       4.3757   -5.9810   -3.6629 H       1  LIG   0.1302   0.1500 
@<TRIPOS>BOND
1     1     2     1
2     1     14    1
3     1     15    1
4     1     16    1
5     2     3     2
6     2     4     am
7     4     5     1
8     4     12    1
9     5     10    ar
10    5     6     ar
11    6     7     ar
12    6     17    1
13    7     8     ar
14    7     18    1
15    8     9     ar
16    8     11    1
17    9     10    ar
18    9     19    1
19    10    20    1
20    11    13    1
@<TRIPOS>SUBSTRUCTURE
1   LIG    1    
 
########## Number      : 134
########## Name        : ZINC00000867
########## Description : AM1BCC_CHARGES =  -0.0003 ORIGINAL_CHARGES =   0.0000

@<TRIPOS>MOLECULE
ZINC00000867
33    34    1     0     0    
SMALL
USER_CHARGES
****
****
@<TRIPOS>ATOM
1     C1       4.9739   -1.8235    1.3037 C.3     1  LIG  -0.0589   0.1435 
2     C2       5.1060   -3.3148    1.4013 C.ar    1  LIG  -0.0533  -0.1435 
3     C3       6.2994   -3.8826    1.8445 C.ar    1  LIG  -0.1174  -0.1500 
4     C4       6.4122   -5.2729    1.9501 C.ar    1  LIG   0.1186   0.0825 
5     C5       5.3658   -6.1497    1.5917 C.ar    1  LIG  -0.0308   0.0000 
6     C6       5.4900   -7.5545    1.6546 C.ar    1  LIG  -0.1058  -0.1500 
7     C7       4.4350   -8.3908    1.2921 C.ar    1  LIG  -0.1265  -0.1500 
8     C8       3.2363   -7.8416    0.8578 C.ar    1  LIG  -0.1224  -0.1500 
9     C9       3.0925   -6.4560    0.7866 C.ar    1  LIG  -0.1106  -0.1500 
10    C10      4.1452   -5.5876    1.1507 C.ar    1  LIG  -0.0214   0.0000 
11    C11      4.0377   -4.1748    1.0913 C.ar    1  LIG   0.1059   0.0825 
12    O1       2.8336   -3.6012    0.6425 O.3     1  LIG  -0.3743  -0.2325 
13    C12      1.9467   -3.3125    1.6746 C.2     1  LIG   0.6320   0.6590 
14    O2       2.1180   -3.5096    2.8699 O.2     1  LIG  -0.5085  -0.5700 
15    C13      0.7081   -2.7047    1.0871 C.3     1  LIG  -0.1507   0.0610 
16    O3       7.6477   -5.7926    2.3684 O.3     1  LIG  -0.3759  -0.2325 
17    C14      7.7845   -5.8283    3.7519 C.2     1  LIG   0.6313   0.6590 
18    O4       6.9601   -5.4739    4.5837 O.2     1  LIG  -0.5069  -0.5700 
19    C15      9.1339   -6.3905    4.0866 C.3     1  LIG  -0.1501   0.0610 
20    H1       5.9532   -1.3341    1.3337 H       1  LIG   0.0476   0.0000 
21    H2       4.5008   -1.5378    0.3586 H       1  LIG   0.0496   0.0000 
22    H3       4.3760   -1.4427    2.1374 H       1  LIG   0.0635   0.0000 
23    H4       7.1444   -3.2521    2.1093 H       1  LIG   0.1496   0.1500 
24    H5       6.4178   -8.0144    1.9882 H       1  LIG   0.1408   0.1500 
25    H6       4.5520   -9.4691    1.3485 H       1  LIG   0.1340   0.1500 
26    H7       2.4119   -8.4886    0.5727 H       1  LIG   0.1338   0.1500 
27    H8       2.1416   -6.0586    0.4380 H       1  LIG   0.1398   0.1500 
28    H9       0.0032   -2.4718    1.8903 H       1  LIG   0.0788   0.0000 
29    H10      0.9615   -1.7778    0.5666 H       1  LIG   0.0777   0.0000 
30    H11      0.2355   -3.4146    0.4038 H       1  LIG   0.0764   0.0000 
31    H12      9.2575   -6.4126    5.1731 H       1  LIG   0.0789   0.0000 
32    H13      9.2145   -7.4115    3.7054 H       1  LIG   0.0767   0.0000 
33    H14      9.9157   -5.7565    3.6608 H       1  LIG   0.0782   0.0000 
@<TRIPOS>BOND
1     1     2     1
2     1     20    1
3     1     21    1
4     1     22    1
5     2     11    ar
6     2     3     ar
7     3     4     ar
8     3     23    1
9     4     5     ar
10    4     16    1
11    5     10    ar
12    5     6     ar
13    6     7     ar
14    6     24    1
15    7     8     ar
16    7     25    1
17    8     9     ar
18    8     26    1
19    9     10    ar
20    9     27    1
21    10    11    ar
22    11    12    1
23    12    13    1
24    13    14    2
25    13    15    1
26    15    28    1
27    15    29    1
28    15    30    1
29    16    17    1
30    17    18    2
31    17    19    1
32    19    31    1
33    19    32    1
34    19    33    1
@<TRIPOS>SUBSTRUCTURE
1   LIG    1    
 
########## Number      : 135
########## Name        : ZINC00000868
########## Description : AM1BCC_CHARGES =  -0.0000 ORIGINAL_CHARGES =  -0.0000

@<TRIPOS>MOLECULE
ZINC00000868
22    23    1     0     0    
SMALL
USER_CHARGES
****
****
@<TRIPOS>ATOM
1     C1       0.6256   -9.0998    0.4572 C.3     1  LIG  -0.1708   0.0610 
2     C2       1.5032   -7.9821   -0.0484 C.2     1  LIG   0.6672   0.5690 
3     O1       2.2146   -8.1408   -1.0332 O.2     1  LIG  -0.5956  -0.5700 
4     N1       1.3712   -6.8458    0.7320 N.am    1  LIG  -0.4376  -0.5390 
5     C3       1.9860   -5.6300    0.6114 C.2     1  LIG  -0.0726   0.1234 
6     C4       2.8785   -5.0780   -0.2185 C.2     1  LIG  -0.0467   0.1010 
7     S1       3.7356   -5.6207   -1.5948 S.3     1  LIG   0.1553  -0.1010 
8     S2       4.7413   -3.8301   -1.8991 S.3     1  LIG  -0.1888  -0.1010 
9     C5       4.0236   -3.0046   -0.5463 C.2     1  LIG  -0.0651  -0.0490 
10    C6       3.1558   -3.7230    0.1626 C.2     1  LIG   0.0105   0.1090 
11    N2       2.4070   -3.4382    1.2628 N.am    1  LIG  -0.3604  -0.4691 
12    C7       1.6517   -4.5533    1.6153 C.2     1  LIG   0.7141   0.6156 
13    O2       0.8638   -4.6912    2.5366 O.2     1  LIG  -0.6157  -0.5700 
14    C8       2.3971   -2.1733    1.9583 C.3     1  LIG   0.0950   0.3001 
15    H1       0.7245   -6.9068    1.5164 H       1  LIG   0.3447   0.3700 
16    H2       0.7494   -9.9829   -0.1760 H       1  LIG   0.0863   0.0000 
17    H3       0.9059   -9.3575    1.4825 H       1  LIG   0.0704   0.0000 
18    H4      -0.4229   -8.7898    0.4311 H       1  LIG   0.0684   0.0000 
19    H5       4.2876   -1.9788   -0.3261 H       1  LIG   0.1846   0.1500 
20    H6       2.0729   -1.3862    1.2711 H       1  LIG   0.0409   0.0000 
21    H7       1.7086   -2.2131    2.8069 H       1  LIG   0.0769   0.0000 
22    H8       3.4045   -1.9551    2.3247 H       1  LIG   0.0390   0.0000 
@<TRIPOS>BOND
1     1     2     1
2     1     16    1
3     1     17    1
4     1     18    1
5     2     3     2
6     2     4     am
7     4     5     1
8     4     15    1
9     5     12    1
10    5     6     2
11    6     10    1
12    6     7     1
13    7     8     1
14    8     9     1
15    9     10    2
16    9     19    1
17    10    11    1
18    11    12    am
19    11    14    1
20    12    13    2
21    14    20    1
22    14    21    1
23    14    22    1
@<TRIPOS>SUBSTRUCTURE
1   LIG    1    
 
########## Number      : 136
########## Name        : ZINC00000869
########## Description : AM1BCC_CHARGES =   0.0001 ORIGINAL_CHARGES =   0.0000

@<TRIPOS>MOLECULE
ZINC00000869
30    30    1     0     0    
SMALL
USER_CHARGES
****
****
@<TRIPOS>ATOM
1     C1       1.6431   -6.3470   -0.2540 C.3     1  LIG  -0.1963   0.0610 
2     C2       1.8706   -7.0042    1.0774 C.2     1  LIG   0.6355   0.6590 
3     O1       1.0660   -7.7932    1.5651 O.2     1  LIG  -0.4794  -0.5700 
4     O2       3.0490   -6.6748    1.7435 O.3     1  LIG  -0.3460  -0.2325 
5     C3       4.0452   -5.8492    1.1846 C.ar    1  LIG   0.1046   0.0825 
6     C4       4.8767   -6.3485    0.1814 C.ar    1  LIG  -0.1512  -0.1500 
7     C5       5.9069   -5.5466   -0.3154 C.ar    1  LIG  -0.1011  -0.1500 
8     C6       6.1153   -4.2642    0.1999 C.ar    1  LIG  -0.1348  -0.1500 
9     C7       5.2781   -3.7826    1.2095 C.ar    1  LIG   0.1240   0.0825 
10    C8       4.2474   -4.5753    1.7120 C.ar    1  LIG   0.0940   0.0825 
11    O3       3.4796   -4.1399    2.7923 O.3     1  LIG  -0.3418  -0.2325 
12    C9       2.4014   -3.3461    2.4201 C.2     1  LIG   0.6461   0.6590 
13    O4       2.0835   -3.0190    1.2850 O.2     1  LIG  -0.5378  -0.5700 
14    C10      1.6586   -2.9348    3.6559 C.3     1  LIG  -0.1499   0.0610 
15    O5       5.5228   -2.5318    1.7842 O.3     1  LIG  -0.3606  -0.2325 
16    C11      5.1960   -1.4587    0.9616 C.2     1  LIG   0.6427   0.6590 
17    O6       4.7314   -1.5101   -0.1691 O.2     1  LIG  -0.5140  -0.5700 
18    C12      5.4974   -0.1849    1.6933 C.3     1  LIG  -0.1499   0.0610 
19    H1       0.6128   -6.5425   -0.5691 H       1  LIG   0.0816   0.0000 
20    H2       1.7556   -5.2640   -0.1824 H       1  LIG   0.1076   0.0000 
21    H3       2.3111   -6.7681   -1.0079 H       1  LIG   0.0729   0.0000 
22    H4       4.7382   -7.3533   -0.2065 H       1  LIG   0.1522   0.1500 
23    H5       6.5599   -5.9275   -1.0961 H       1  LIG   0.1460   0.1500 
24    H6       6.9326   -3.6570   -0.1787 H       1  LIG   0.1646   0.1500 
25    H7       0.8052   -2.3112    3.3745 H       1  LIG   0.0785   0.0000 
26    H8       1.2860   -3.8206    4.1763 H       1  LIG   0.0887   0.0000 
27    H9       2.3159   -2.3524    4.3064 H       1  LIG   0.0800   0.0000 
28    H10      5.2619    0.6670    1.0491 H       1  LIG   0.0828   0.0000 
29    H11      4.8825   -0.1217    2.5946 H       1  LIG   0.0791   0.0000 
30    H12      6.5597   -0.1452    1.9470 H       1  LIG   0.0820   0.0000 
@<TRIPOS>BOND
1     1     2     1
2     1     19    1
3     1     20    1
4     1     21    1
5     2     3     2
6     2     4     1
7     4     5     1
8     5     10    ar
9     5     6     ar
10    6     7     ar
11    6     22    1
12    7     8     ar
13    7     23    1
14    8     9     ar
15    8     24    1
16    9     10    ar
17    9     15    1
18    10    11    1
19    11    12    1
20    12    13    2
21    12    14    1
22    14    25    1
23    14    26    1
24    14    27    1
25    15    16    1
26    16    17    2
27    16    18    1
28    18    28    1
29    18    29    1
30    18    30    1
@<TRIPOS>SUBSTRUCTURE
1   LIG    1    
 
########## Number      : 137
########## Name        : ZINC00000877
########## Description : AM1BCC_CHARGES =  -0.0001 ORIGINAL_CHARGES =   0.0000

@<TRIPOS>MOLECULE
ZINC00000877
45    48    1     0     0    
SMALL
USER_CHARGES
****
****
@<TRIPOS>ATOM
1     C1      -5.0278    0.8024    1.9445 C.3     1  LIG  -0.1525   0.1435 
2     C2      -4.2654    2.0468    2.2858 C.ar    1  LIG   0.4412   0.1665 
3     C3      -4.4545    3.2011    1.5379 C.ar    1  LIG  -0.2948  -0.1500 
4     C4      -3.7249    4.3502    1.8552 C.ar    1  LIG   0.1664   0.1000 
5     C5      -2.8359    4.2903    2.9632 C.ar    1  LIG  -0.1391   0.0000 
6     C6      -2.6957    3.0649    3.6615 C.ar    1  LIG   0.4317   0.3100 
7     N1      -3.3978    1.9736    3.3213 N.ar    1  LIG  -0.6692  -0.6200 
8     C7      -1.8151    2.9725    4.7334 C.ar    1  LIG  -0.2013  -0.1500 
9     C8      -1.0521    4.0572    5.1815 C.ar    1  LIG  -0.0506  -0.1500 
10    C9      -1.1979    5.2883    4.5336 C.ar    1  LIG   0.0502   0.2272 
11    C10     -2.0755    5.3904    3.4565 C.ar    1  LIG  -0.0666  -0.1516 
12    N2      -1.9960    6.7185    3.1059 N.pl3   1  LIG  -0.2543   0.0332 
13    C11     -1.0915    7.3282    3.9268 C.2     1  LIG   0.3917   0.0365 
14    N3      -0.5867    6.4905    4.8008 N.2     1  LIG  -0.5551  -0.5653 
15    N4      -3.8585    5.5217    1.0817 N.pl3   1  LIG  -0.6338  -0.6000 
16    C12     -4.9883    6.1079    0.4820 C.ar    1  LIG   0.1166   0.1000 
17    C13     -6.2972    5.8273    0.8802 C.ar    1  LIG  -0.1518  -0.1500 
18    C14     -7.3928    6.4316    0.2466 C.ar    1  LIG  -0.1346  -0.1500 
19    C15     -7.2224    7.3493   -0.8035 C.ar    1  LIG   0.0308   0.1170 
20    C16     -5.9064    7.6193   -1.2032 C.ar    1  LIG  -0.0956  -0.1500 
21    C17     -4.8117    7.0136   -0.5697 C.ar    1  LIG  -0.1691  -0.1500 
22    N5      -8.3646    7.9602   -1.4523 N.am    1  LIG  -0.3879  -0.4771 
23    C18     -9.6545    7.2711   -1.2998 C.3     1  LIG   0.0807   0.3001 
24    C19     -8.2572    9.1963   -2.1193 C.2     1  LIG   0.6648   0.5690 
25    O1      -7.2577    9.9186   -2.1411 O.2     1  LIG  -0.5918  -0.5700 
26    C20     -9.4958    9.6846   -2.8352 C.3     1  LIG  -0.1715   0.0610 
27    H1      -2.5325    7.1753    2.3820 H       1  LIG   0.3184   0.2700 
28    H2      -2.9715    5.9257    0.8006 H       1  LIG   0.4176   0.4000 
29    H3      -6.1045    0.9890    2.0061 H       1  LIG   0.0484   0.0000 
30    H4      -4.7771    0.4711    0.9320 H       1  LIG   0.0518   0.0000 
31    H5      -4.7831   -0.0079    2.6389 H       1  LIG   0.0663   0.0000 
32    H6      -5.1375    3.1883    0.6933 H       1  LIG   0.1517   0.1500 
33    H7      -1.7098    2.0219    5.2553 H       1  LIG   0.1535   0.1500 
34    H8      -0.3767    3.9455    6.0235 H       1  LIG   0.1530   0.1500 
35    H9      -0.8520    8.3787    3.8404 H       1  LIG   0.0709   0.1500 
36    H10     -6.4954    5.1505    1.7076 H       1  LIG   0.1463   0.1500 
37    H11     -8.3795    6.1806    0.6272 H       1  LIG   0.1349   0.1500 
38    H12     -5.6841    8.2698   -2.0434 H       1  LIG   0.1633   0.1500 
39    H13     -3.8110    7.2518   -0.9250 H       1  LIG   0.1344   0.1500 
40    H14    -10.3795    7.5669   -2.0589 H       1  LIG   0.0431   0.0000 
41    H15     -9.5196    6.1892   -1.4009 H       1  LIG   0.0578   0.0000 
42    H16    -10.0709    7.5185   -0.3183 H       1  LIG   0.0294   0.0000 
43    H17     -9.2857   10.6502   -3.3064 H       1  LIG   0.0794   0.0000 
44    H18     -9.7789    8.9822   -3.6237 H       1  LIG   0.0652   0.0000 
45    H19    -10.3162    9.8267   -2.1269 H       1  LIG   0.0600   0.0000 
@<TRIPOS>BOND
1     1     2     1
2     1     29    1
3     1     30    1
4     1     31    1
5     2     7     ar
6     2     3     ar
7     3     4     ar
8     3     32    1
9     4     5     ar
10    4     15    1
11    5     11    ar
12    5     6     ar
13    6     7     ar
14    6     8     ar
15    8     9     ar
16    8     33    1
17    9     10    ar
18    9     34    1
19    10    14    1
20    10    11    ar
21    11    12    1
22    12    13    1
23    12    27    1
24    13    14    2
25    13    35    1
26    15    16    1
27    15    28    1
28    16    21    ar
29    16    17    ar
30    17    18    ar
31    17    36    1
32    18    19    ar
33    18    37    1
34    19    20    ar
35    19    22    1
36    20    21    ar
37    20    38    1
38    21    39    1
39    22    23    1
40    22    24    am
41    23    40    1
42    23    41    1
43    23    42    1
44    24    25    2
45    24    26    1
46    26    43    1
47    26    44    1
48    26    45    1
@<TRIPOS>SUBSTRUCTURE
1   LIG    1    
 
########## Number      : 138
########## Name        : ZINC00000879
########## Description : AM1BCC_CHARGES =   0.0001 ORIGINAL_CHARGES =  -0.0000

@<TRIPOS>MOLECULE
ZINC00000879
29    30    1     0     0    
SMALL
USER_CHARGES
****
****
@<TRIPOS>ATOM
1     C1       1.6741   12.9305   11.9066 C.ar    1  LIG  -0.0958  -0.1500 
2     C2       2.1463   11.9173   11.0702 C.ar    1  LIG  -0.1557  -0.1500 
3     C3       1.4737   11.6321    9.8780 C.ar    1  LIG  -0.0903   0.0862 
4     C4       0.3327   12.3544    9.5190 C.ar    1  LIG  -0.1190  -0.1500 
5     C5      -0.1261   13.3626   10.3644 C.ar    1  LIG   0.1192   0.0825 
6     C6       0.5357   13.6565   11.5558 C.ar    1  LIG  -0.2059  -0.1500 
7     O1      -1.2440   14.0554    9.9923 O.3     1  LIG  -0.4934  -0.5325 
8     C7       1.9994   10.5562    9.0185 C.2     1  LIG   0.3596   0.3038 
9     N1       1.4322   10.2348    7.9011 N.2     1  LIG  -0.4099  -0.5120 
10    N2       2.0436    9.2245    7.2346 N.am    1  LIG  -0.3397  -0.3680 
11    C8       1.5016    8.7963    6.0360 C.2     1  LIG   0.6930   0.5438 
12    O2       0.4774    9.2427    5.5254 O.2     1  LIG  -0.5263  -0.5700 
13    C9       2.2301    7.6947    5.3548 C.ar    1  LIG  -0.1098   0.0862 
14    C10      3.6059    7.5120    5.5006 C.ar    1  LIG  -0.2254  -0.1500 
15    C11      4.1967    6.4621    4.8135 C.ar    1  LIG   0.3905   0.1600 
16    N3       3.5267    5.6075    4.0100 N.ar    1  LIG  -0.6448  -0.6200 
17    C12      2.1990    5.8190    3.8815 C.ar    1  LIG   0.3909   0.1600 
18    C13      1.5100    6.8376    4.5203 C.ar    1  LIG  -0.1931  -0.1500 
19    H1      -1.4396   14.7192   10.6755 H       1  LIG   0.4185   0.4500 
20    H2       2.8615    8.8004    7.6588 H       1  LIG   0.2983   0.3700 
21    H3       2.1948   13.1542   12.8337 H       1  LIG   0.1344   0.1500 
22    H4       3.0347   11.3624   11.3601 H       1  LIG   0.1311   0.1500 
23    H5      -0.2003   12.1440    8.5958 H       1  LIG   0.1746   0.1500 
24    H6       0.1780   14.4422   12.2147 H       1  LIG   0.1351   0.1500 
25    H7       2.9066   10.0364    9.3791 H       1  LIG  -0.0120   0.0600 
26    H8       4.2232    8.1654    6.1061 H       1  LIG   0.1456   0.1500 
27    H9       5.2639    6.2792    4.8913 H       1  LIG   0.0289   0.1500 
28    H10      1.6821    5.1239    3.2275 H       1  LIG   0.0321   0.1500 
29    H11      0.4408    6.9459    4.3708 H       1  LIG   0.1694   0.1500 
@<TRIPOS>BOND
1     1     6     ar
2     1     2     ar
3     1     21    1
4     2     3     ar
5     2     22    1
6     3     4     ar
7     3     8     1
8     4     5     ar
9     4     23    1
10    5     6     ar
11    5     7     1
12    6     24    1
13    7     19    1
14    8     9     2
15    8     25    1
16    9     10    1
17    10    11    am
18    10    20    1
19    11    12    2
20    11    13    1
21    13    18    ar
22    13    14    ar
23    14    15    ar
24    14    26    1
25    15    16    ar
26    15    27    1
27    16    17    ar
28    17    18    ar
29    17    28    1
30    18    29    1
@<TRIPOS>SUBSTRUCTURE
1   LIG    1    
 
########## Number      : 139
########## Name        : ZINC00000880
########## Description : AM1BCC_CHARGES =  -0.9997 ORIGINAL_CHARGES =  -1.0000

@<TRIPOS>MOLECULE
ZINC00000880
24    24    1     0     0    
SMALL
USER_CHARGES
****
****
@<TRIPOS>ATOM
1     C1       4.9472   -9.1410   -1.6843 C.3     1  LIG  -0.1800   0.0610 
2     C2       4.4067   -8.2562   -0.5891 C.2     1  LIG   0.6568   0.5690 
3     O1       4.4007   -8.6335    0.5779 O.2     1  LIG  -0.6081  -0.5700 
4     N1       3.9602   -7.0439   -1.0969 N.am    1  LIG  -0.4594  -0.5470 
5     C3       3.3894   -5.9679   -0.3781 C.ar    1  LIG   0.0099   0.1170 
6     C4       3.1736   -5.9703    1.0019 C.ar    1  LIG  -0.1481  -0.1500 
7     C5       2.6010   -4.8585    1.6308 C.ar    1  LIG  -0.1215  -0.1500 
8     C6       2.2396   -3.7244    0.8947 C.ar    1  LIG  -0.0158  -0.1435 
9     C7       2.4483   -3.7261   -0.4878 C.ar    1  LIG  -0.1148  -0.1500 
10    C8       3.0193   -4.8356   -1.1166 C.ar    1  LIG  -0.1809  -0.1500 
11    C9       1.6099   -2.5393    1.5729 C.3     1  LIG  -0.1806   0.0375 
12    C10      0.0933   -2.6960    1.5745 C.2     1  LIG   0.9220   0.9060 
13    O2      -0.5000   -2.1995    0.5750 O.co2   1  LIG  -0.8379  -0.9000 
14    H1       4.0497   -6.9005   -2.0996 H       1  LIG   0.3028   0.3700 
15    H2       5.2744  -10.0951   -1.2615 H       1  LIG   0.0692   0.0000 
16    H3       4.1675   -9.3325   -2.4270 H       1  LIG   0.0520   0.0000 
17    H4       5.8006   -8.6555   -2.1661 H       1  LIG   0.0507   0.0000 
18    H5       3.4322   -6.8175    1.6267 H       1  LIG   0.1535   0.1500 
19    H6       2.4355   -4.8867    2.7056 H       1  LIG   0.1410   0.1500 
20    H7       2.1642   -2.8636   -1.0859 H       1  LIG   0.1433   0.1500 
21    H8       3.1684   -4.8023   -2.1935 H       1  LIG   0.1064   0.1500 
22    H9       1.9815   -2.4447    2.6006 H       1  LIG   0.0367   0.0000 
23    H10      1.8940   -1.6116    1.0610 H       1  LIG   0.0352   0.0000 
24    O3      -0.3858   -3.2845    2.5853 O.co2   1  LIG  -0.8321  -0.9000 
@<TRIPOS>BOND
1     1     2     1
2     1     15    1
3     1     16    1
4     1     17    1
5     2     3     2
6     2     4     am
7     4     5     1
8     4     14    1
9     5     10    ar
10    5     6     ar
11    6     7     ar
12    6     18    1
13    7     8     ar
14    7     19    1
15    8     9     ar
16    8     11    1
17    9     10    ar
18    9     20    1
19    10    21    1
20    11    12    1
21    11    22    1
22    11    23    1
23    12    13    2
24    12    24    1
@<TRIPOS>SUBSTRUCTURE
1   LIG    1    
 
########## Number      : 140
########## Name        : ZINC00000881
########## Description : AM1BCC_CHARGES =   0.9999 ORIGINAL_CHARGES =   1.0000

@<TRIPOS>MOLECULE
ZINC00000881
42    43    1     0     0    
SMALL
USER_CHARGES
****
****
@<TRIPOS>ATOM
1     C1       8.3164   -4.2164    2.7887 C.3     1  LIG  -0.0921   0.0000 
2     C2       6.9353   -4.3332    2.1445 C.3     1  LIG   0.1372   0.2800 
3     C3       6.2800   -5.6899    2.3957 C.3     1  LIG   0.0660   0.3001 
4     C4       4.8778   -5.6387    1.7607 C.3     1  LIG  -0.0867   0.0000 
5     C5       4.1294   -6.9851    1.9028 C.3     1  LIG   0.1550   0.2800 
6     C6       2.7640   -6.9237    1.1942 C.3     1  LIG   0.1120   0.2800 
7     C7       1.9197   -5.7383    1.6642 C.3     1  LIG  -0.2205   0.0610 
8     C8       2.7260   -4.4591    1.6174 C.2     1  LIG   0.5801   0.4480 
9     C9       4.0316   -4.5124    2.3890 C.3     1  LIG  -0.2572   0.1220 
10    C10      4.7863   -3.1902    2.3723 C.2     1  LIG   0.7125   0.6590 
11    O1       4.2303   -2.0981    2.3066 O.2     1  LIG  -0.5149  -0.5700 
12    O2       6.1151   -3.2664    2.6547 O.3     1  LIG  -0.4244  -0.4300 
13    O3       2.3075   -3.4709    1.0220 O.2     1  LIG  -0.4492  -0.5700 
14    O4       2.0651   -8.1246    1.4814 O.3     1  LIG  -0.6052  -0.6800 
15    O5       4.9018   -8.0032    1.2850 O.3     1  LIG  -0.5962  -0.6800 
16    N1       6.1958   -5.9456    3.8377 N.am    1  LIG  -0.5371  -0.7301 
17    C11      6.5856   -7.1403    4.4183 C.2     1  LIG   0.6294   0.5690 
18    O6       7.0683   -8.0905    3.8041 O.2     1  LIG  -0.5180  -0.5700 
19    C12      6.4215   -7.1979    5.9313 C.3     1  LIG   0.0304   0.5640 
20    C13      5.0191   -6.8122    6.3938 C.3     1  LIG  -0.1415   0.0000 
21    H1       3.8220   -4.7672    3.4431 H       1  LIG   0.0875   0.0000 
22    H2       1.2218   -8.0984    0.9970 H       1  LIG   0.4279   0.4000 
23    H3       4.3878   -8.8279    1.3440 H       1  LIG   0.4383   0.4000 
24    H4       5.8371   -5.1963    4.4199 H       1  LIG   0.3147   0.3700 
25    H5       7.3422   -6.3394    7.5989 H       1  LIG   0.4641   0.4500 
26    H6       8.3678   -6.5592    6.3197 H       1  LIG   0.4749   0.4500 
27    H7       8.7793   -3.2631    2.5106 H       1  LIG   0.0799   0.0000 
28    H8       8.2540   -4.2184    3.8821 H       1  LIG   0.0252   0.0000 
29    H9       8.9754   -5.0287    2.4676 H       1  LIG   0.0602   0.0000 
30    H10      7.0859   -4.2022    1.0597 H       1  LIG   0.0843   0.0000 
31    H11      6.8484   -6.4996    1.9123 H       1  LIG   0.1375   0.0000 
32    H12      5.0000   -5.3929    0.6867 H       1  LIG   0.1044   0.0000 
33    H13      3.9866   -7.2145    2.9708 H       1  LIG   0.0362   0.0000 
34    H14      2.9246   -6.8250    0.1080 H       1  LIG   0.0689   0.0000 
35    H15      1.0302   -5.6366    1.0323 H       1  LIG   0.0971   0.0000 
36    H16      1.5606   -5.8883    2.6891 H       1  LIG   0.0868   0.0000 
37    H17      6.5990   -8.2366    6.2553 H       1  LIG   0.1469   0.0000 
38    H18      4.8989   -7.0122    7.4642 H       1  LIG   0.0827   0.0000 
39    H19      4.8019   -5.7512    6.2312 H       1  LIG   0.0666   0.0000 
40    H20      4.2617   -7.3915    5.8547 H       1  LIG   0.1117   0.0000 
41    N2       7.4053   -6.2964    6.5728 N.4     1  LIG  -0.8367  -0.8530 
42    H21      7.2746   -5.3143    6.2961 H       1  LIG   0.4612   0.4500 
@<TRIPOS>BOND
1     1     2     1
2     1     27    1
3     1     28    1
4     1     29    1
5     2     12    1
6     2     3     1
7     2     30    1
8     3     4     1
9     3     16    1
10    3     31    1
11    4     9     1
12    4     5     1
13    4     32    1
14    5     6     1
15    5     15    1
16    5     33    1
17    6     7     1
18    6     14    1
19    6     34    1
20    7     36    1
21    7     8     1
22    7     35    1
23    8     9     1
24    8     13    2
25    9     10    1
26    9     21    1
27    10    11    2
28    10    12    1
29    14    22    1
30    15    23    1
31    16    17    am
32    16    24    1
33    17    18    2
34    17    19    1
35    19    20    1
36    19    37    1
37    19    41    1
38    20    38    1
39    20    39    1
40    20    40    1
41    25    41    1
42    26    41    1
43    41    42    1
@<TRIPOS>SUBSTRUCTURE
1   LIG    1    
 
########## Number      : 141
########## Name        : ZINC00000887
########## Description : AM1BCC_CHARGES =  -0.0000 ORIGINAL_CHARGES =   0.0000

@<TRIPOS>MOLECULE
ZINC00000887
18    18    1     0     0    
SMALL
USER_CHARGES
****
****
@<TRIPOS>ATOM
1     C1       2.6755   -6.1291    0.8377 C.ar    1  LIG  -0.0755  -0.1500 
2     C2       1.5558   -5.3197    1.0326 C.ar    1  LIG  -0.0858  -0.1500 
3     C3       0.6477   -5.0964   -0.0137 C.ar    1  LIG  -0.0942   0.0862 
4     C4       0.8524   -5.7121   -1.2582 C.ar    1  LIG   0.0230   0.1770 
5     C5       1.9745   -6.5242   -1.4601 C.ar    1  LIG  -0.0735  -0.1500 
6     C6       2.8776   -6.7221   -0.4103 C.ar    1  LIG  -0.1524   0.1330 
7     N1       4.0464   -7.5689   -0.6201 N.pl3   1  LIG   0.3122   0.9070 
8     O1       4.5779   -8.0731    0.3785 O.2     1  LIG  -0.1955  -0.5200 
9     O2       4.4365   -7.7315   -1.7843 O.3     1  LIG  -0.1988  -0.5200 
10    Cl1     -0.2644   -5.5634   -2.5694 Cl      1  LIG  -0.0609  -0.1770 
11    C7      -0.5043   -4.2186    0.2923 C.2     1  LIG   0.6672   0.5438 
12    O3      -1.1490   -4.3852    1.3218 O.2     1  LIG  -0.5889  -0.5700 
13    N2      -0.7454   -3.2109   -0.6098 N.am    1  LIG  -0.6587  -0.8000 
14    H1      -1.5080   -2.5600   -0.4574 H       1  LIG   0.3237   0.3700 
15    H2      -0.1888   -3.0773   -1.4473 H       1  LIG   0.3161   0.3700 
16    H3       3.3684   -6.2737    1.6624 H       1  LIG   0.1800   0.1500 
17    H4       1.4053   -4.8558    2.0053 H       1  LIG   0.1745   0.1500 
18    H5       2.1242   -7.0052   -2.4243 H       1  LIG   0.1875   0.1500 
@<TRIPOS>BOND
1     1     6     ar
2     1     2     ar
3     1     16    1
4     2     3     ar
5     2     17    1
6     3     4     ar
7     3     11    1
8     4     5     ar
9     4     10    1
10    5     6     ar
11    5     18    1
12    6     7     1
13    7     8     2
14    7     9     1
15    11    12    2
16    11    13    am
17    13    14    1
18    13    15    1
@<TRIPOS>SUBSTRUCTURE
1   LIG    1    
 
########## Number      : 142
########## Name        : ZINC00000888
########## Description : AM1BCC_CHARGES =   0.0000 ORIGINAL_CHARGES =   0.0000

@<TRIPOS>MOLECULE
ZINC00000888
37    39    1     0     0    
SMALL
USER_CHARGES
****
****
@<TRIPOS>ATOM
1     C1      -6.3402    7.9746   -0.8720 C.3     1  LIG  -0.0915   0.0000 
2     C2      -7.1044    7.3383    0.3042 C.3     1  LIG  -0.0300   0.1382 
3     C3      -8.1417    8.3353    0.8233 C.3     1  LIG  -0.0712   0.0000 
4     C4      -8.9819    7.7315    1.9409 C.3     1  LIG  -0.0777   0.0000 
5     C5      -8.0955    7.2881    3.0993 C.3     1  LIG  -0.0689   0.0000 
6     C6      -6.9317    6.3390    2.6944 C.3     1  LIG  -0.0086   0.1382 
7     C7      -6.1950    6.9029    1.4655 C.2     1  LIG  -0.0685  -0.2764 
8     C8      -4.8480    6.9480    1.4233 C.2     1  LIG  -0.1857  -0.2882 
9     C9      -3.8990    6.4282    2.4824 C.3     1  LIG  -0.0124   0.2764 
10    C10     -4.5766    5.7201    3.6250 C.3     1  LIG   0.1436   0.2800 
11    C11     -5.9782    6.2498    3.9165 C.3     1  LIG  -0.0768   0.0000 
12    O1      -4.6112    4.3359    3.2775 O.3     1  LIG  -0.4095  -0.4300 
13    C12     -3.6184    4.0541    2.3768 C.2     1  LIG   0.7194   0.7056 
14    O2      -3.2934    2.9423    2.0011 O.2     1  LIG  -0.5678  -0.5700 
15    C13     -3.0413    5.3449    1.9329 C.2     1  LIG  -0.1956  -0.1238 
16    C14     -1.9187    5.4323    1.2158 C.2     1  LIG  -0.1211  -0.3000 
17    C15     -7.4972    4.9460    2.3409 C.3     1  LIG  -0.0854   0.0000 
18    H1      -7.0399    8.2739   -1.6609 H       1  LIG   0.0370   0.0000 
19    H2      -5.7900    8.8710   -0.5650 H       1  LIG   0.0365   0.0000 
20    H3      -5.6378    7.2647   -1.3224 H       1  LIG   0.0365   0.0000 
21    H4      -7.5974    6.4537   -0.1326 H       1  LIG   0.0608   0.0000 
22    H5      -7.6504    9.2489    1.1837 H       1  LIG   0.0446   0.0000 
23    H6      -8.8087    8.6387    0.0070 H       1  LIG   0.0420   0.0000 
24    H7      -9.7037    8.4749    2.2986 H       1  LIG   0.0420   0.0000 
25    H8      -9.5663    6.8872    1.5586 H       1  LIG   0.0437   0.0000 
26    H9      -7.6860    8.1968    3.5621 H       1  LIG   0.0407   0.0000 
27    H10     -8.7180    6.8107    3.8670 H       1  LIG   0.0441   0.0000 
28    H11     -4.3465    7.3611    0.5520 H       1  LIG   0.1287   0.1500 
29    H12     -3.3213    7.3080    2.7958 H       1  LIG   0.0773   0.0000 
30    H13     -3.9939    5.8662    4.5503 H       1  LIG   0.0602   0.0000 
31    H14     -5.8556    7.2502    4.3552 H       1  LIG   0.0518   0.0000 
32    H15     -6.4446    5.6283    4.6922 H       1  LIG   0.0682   0.0000 
33    H16     -1.3775    4.5477    0.8965 H       1  LIG   0.1397   0.1500 
34    H17     -1.5158    6.3983    0.9305 H       1  LIG   0.1246   0.1500 
35    H18     -7.9332    4.4658    3.2243 H       1  LIG   0.0382   0.0000 
36    H19     -8.2852    4.9962    1.5827 H       1  LIG   0.0358   0.0000 
37    H20     -6.7265    4.2777    1.9446 H       1  LIG   0.0553   0.0000 
@<TRIPOS>BOND
1     1     2     1
2     1     18    1
3     1     19    1
4     1     20    1
5     2     7     1
6     2     3     1
7     2     21    1
8     3     4     1
9     3     22    1
10    3     23    1
11    4     5     1
12    4     24    1
13    4     25    1
14    5     6     1
15    5     26    1
16    5     27    1
17    6     11    1
18    6     7     1
19    6     17    1
20    7     8     2
21    8     9     1
22    8     28    1
23    9     15    1
24    9     10    1
25    9     29    1
26    10    11    1
27    10    12    1
28    10    30    1
29    11    31    1
30    11    32    1
31    12    13    1
32    13    14    2
33    13    15    1
34    15    16    2
35    16    33    1
36    16    34    1
37    17    35    1
38    17    36    1
39    17    37    1
@<TRIPOS>SUBSTRUCTURE
1   LIG    1    
 
########## Number      : 143
########## Name        : ZINC00000893
########## Description : AM1BCC_CHARGES =  -1.0000 ORIGINAL_CHARGES =  -1.0000

@<TRIPOS>MOLECULE
ZINC00000893
31    31    1     0     0    
SMALL
USER_CHARGES
****
****
@<TRIPOS>ATOM
1     C1       2.9169   -5.4712    2.9782 C.3     1  LIG  -0.0313   0.1435 
2     C2       3.8869   -5.7443    1.8598 C.ar    1  LIG  -0.0889  -0.1435 
3     C3       4.8614   -6.7351    2.0565 C.ar    1  LIG  -0.1572  -0.1500 
4     C4       5.8036   -7.0246    1.0688 C.ar    1  LIG  -0.1029  -0.1500 
5     C5       5.7953   -6.3361   -0.1480 C.ar    1  LIG  -0.1189  -0.1790 
6     C6       4.8082   -5.3563   -0.3480 C.ar    1  LIG  -0.1359  -0.1500 
7     C7       3.8371   -5.0513    0.6310 C.ar    1  LIG   0.0466   0.1000 
8     N1       2.8470   -4.0893    0.3773 N.pl3   1  LIG  -0.6288  -0.8382 
9     C8       3.2850   -2.8047   -0.1840 C.3     1  LIG   0.1636   0.3691 
10    C9       2.3919   -1.6596    0.2814 C.3     1  LIG   0.0412   0.2900 
11    Cl1      3.0398   -0.0982   -0.2770 Cl      1  LIG  -0.2149  -0.2900 
12    C10      1.5066   -4.6125    0.0743 C.3     1  LIG   0.1731   0.3691 
13    C11      1.3681   -5.0242   -1.3885 C.3     1  LIG   0.0043   0.2900 
14    Cl2     -0.2725   -5.6394   -1.7051 Cl      1  LIG  -0.2224  -0.2900 
15    C12      6.8122   -6.6431   -1.2204 C.2     1  LIG   0.9081   0.9790 
16    O1       6.7369   -5.9801   -2.3021 O.co2   1  LIG  -0.8302  -0.9000 
17    H1       3.3785   -5.6731    3.9511 H       1  LIG   0.0209   0.0000 
18    H2       2.6061   -4.4218    2.9927 H       1  LIG   0.0392   0.0000 
19    H3       2.0336   -6.1085    2.8758 H       1  LIG   0.0257   0.0000 
20    H4       4.8994   -7.2869    2.9933 H       1  LIG   0.1090   0.1500 
21    H5       6.5447   -7.7954    1.2667 H       1  LIG   0.1543   0.1500 
22    H6       4.7763   -4.8286   -1.3000 H       1  LIG   0.1537   0.1500 
23    H7       4.3100   -2.5890    0.1479 H       1  LIG   0.0846   0.0000 
24    H8       3.3056   -2.8528   -1.2792 H       1  LIG   0.0361   0.0000 
25    H9       1.3789   -1.7474   -0.1204 H       1  LIG   0.0556   0.0000 
26    H10      2.3286   -1.6250    1.3735 H       1  LIG   0.0705   0.0000 
27    H11      1.2696   -5.4685    0.7174 H       1  LIG   0.0678   0.0000 
28    H12      0.7569   -3.8514    0.3182 H       1  LIG   0.0420   0.0000 
29    H13      1.5345   -4.1794   -2.0626 H       1  LIG   0.0634   0.0000 
30    H14      2.0730   -5.8179   -1.6524 H       1  LIG   0.0970   0.0000 
31    O2       7.6727   -7.5433   -0.9664 O.co2   1  LIG  -0.8253  -0.9000 
@<TRIPOS>BOND
1     1     2     1
2     1     17    1
3     1     18    1
4     1     19    1
5     2     7     ar
6     2     3     ar
7     3     4     ar
8     3     20    1
9     4     5     ar
10    4     21    1
11    5     6     ar
12    5     15    1
13    6     7     ar
14    6     22    1
15    7     8     1
16    8     9     1
17    8     12    1
18    9     10    1
19    9     23    1
20    9     24    1
21    10    11    1
22    10    25    1
23    10    26    1
24    12    13    1
25    12    27    1
26    12    28    1
27    13    14    1
28    13    29    1
29    13    30    1
30    15    16    2
31    15    31    1
@<TRIPOS>SUBSTRUCTURE
1   LIG    1    
 
########## Number      : 144
########## Name        : ZINC00000896
########## Description : AM1BCC_CHARGES =   0.0001 ORIGINAL_CHARGES =   0.0000

@<TRIPOS>MOLECULE
ZINC00000896
14    15    1     0     0    
SMALL
USER_CHARGES
****
****
@<TRIPOS>ATOM
1     C1       4.6781    3.1509    2.9856 C.2     1  LIG   0.3820   0.1388 
2     C2       4.4148    2.7988    4.3157 C.2     1  LIG  -0.3705  -0.0860 
3     C3       3.0958    2.4105    4.3299 C.2     1  LIG   0.1640  -0.0256 
4     N1       2.6538    2.5464    3.0493 N.pl3   1  LIG   0.0027   0.2996 
5     N2       3.6024    2.9988    2.2020 N.2     1  LIG  -0.5099  -0.7068 
6     N3       2.3534    1.9772    5.3761 N.2     1  LIG  -0.6129  -0.5760 
7     C4       3.0427    1.9503    6.4790 C.2     1  LIG   0.5088   0.4500 
8     N4       4.3838    2.3152    6.6090 N.am    1  LIG  -0.4962  -0.4900 
9     C5       5.1676    2.7648    5.5425 C.2     1  LIG   0.7466   0.7160 
10    O1       6.3451    3.0908    5.6295 O.2     1  LIG  -0.6129  -0.5700 
11    H1       1.7300    2.3522    2.6836 H       1  LIG   0.3384   0.2700 
12    H2       4.8218    2.2542    7.5223 H       1  LIG   0.3403   0.3700 
13    H3       5.5980    3.5105    2.5467 H       1  LIG   0.0614   0.1500 
14    H4       2.5941    1.6225    7.4297 H       1  LIG   0.0583   0.0600 
@<TRIPOS>BOND
1     1     5     2
2     1     2     1
3     1     13    1
4     2     9     1
5     2     3     2
6     3     4     1
7     3     6     1
8     4     5     1
9     4     11    1
10    6     7     2
11    7     8     1
12    7     14    1
13    8     9     am
14    8     12    1
15    9     10    2
@<TRIPOS>SUBSTRUCTURE
1   LIG    1    
 
########## Number      : 145
########## Name        : ZINC00000905
########## Description : AM1BCC_CHARGES =  -0.0001 ORIGINAL_CHARGES =   0.0000

@<TRIPOS>MOLECULE
ZINC00000905
33    33    1     0     0    
SMALL
USER_CHARGES
****
****
@<TRIPOS>ATOM
1     C1       1.7369   -8.5982    0.6128 C.3     1  LIG   0.2009   0.3691 
2     N1       2.7920   -7.6804    0.2231 N.pl3   1  LIG  -0.7496  -0.8382 
3     C2       4.1772   -8.1104    0.2833 C.3     1  LIG   0.2010   0.3691 
4     C3       2.5100   -6.3176    0.1523 C.ar    1  LIG   0.9318   0.7200 
5     N2       1.2353   -5.9048    0.2700 N.ar    1  LIG  -0.8497  -0.6200 
6     C4       0.9816   -4.5861    0.1954 C.ar    1  LIG   0.9325   0.7200 
7     N3       1.9649   -3.6876    0.0091 N.ar    1  LIG  -0.8510  -0.6200 
8     C5       3.2271   -4.1372   -0.1078 C.ar    1  LIG   0.9332   0.7200 
9     N4       3.5186   -5.4484   -0.0382 N.ar    1  LIG  -0.8500  -0.6200 
10    N5       4.2595   -3.2212   -0.2998 N.pl3   1  LIG  -0.7511  -0.8382 
11    C6       3.9286   -1.8318   -0.5595 C.3     1  LIG   0.2024   0.3691 
12    C7       5.5891   -3.7140   -0.6108 C.3     1  LIG   0.2022   0.3691 
13    N6      -0.3323   -4.1391    0.3201 N.pl3   1  LIG  -0.7493  -0.8382 
14    C8      -1.4089   -5.1128    0.3340 C.3     1  LIG   0.2010   0.3691 
15    C9      -0.6290   -2.7428    0.0559 C.3     1  LIG   0.2012   0.3691 
16    H1       0.8536   -8.4831   -0.0255 H       1  LIG   0.0615   0.0000 
17    H2       2.0619   -9.6399    0.5178 H       1  LIG   0.0401   0.0000 
18    H3       1.4460   -8.4328    1.6559 H       1  LIG   0.0309   0.0000 
19    H4       4.7570   -7.7028   -0.5525 H       1  LIG   0.0619   0.0000 
20    H5       4.6398   -7.7944    1.2247 H       1  LIG   0.0306   0.0000 
21    H6       4.2572   -9.2010    0.2214 H       1  LIG   0.0401   0.0000 
22    H7       4.8277   -1.2065   -0.5779 H       1  LIG   0.0402   0.0000 
23    H8       3.4293   -1.7276   -1.5290 H       1  LIG   0.0298   0.0000 
24    H9       3.2768   -1.4253    0.2220 H       1  LIG   0.0620   0.0000 
25    H10      6.3212   -2.8993   -0.6239 H       1  LIG   0.0402   0.0000 
26    H11      5.9318   -4.4350    0.1398 H       1  LIG   0.0622   0.0000 
27    H12      5.6038   -4.1922   -1.5962 H       1  LIG   0.0301   0.0000 
28    H13     -2.3716   -4.6370    0.5497 H       1  LIG   0.0402   0.0000 
29    H14     -1.4928   -5.6108   -0.6381 H       1  LIG   0.0296   0.0000 
30    H15     -1.2500   -5.8706    1.1094 H       1  LIG   0.0627   0.0000 
31    H16     -1.6702   -2.5054    0.2994 H       1  LIG   0.0403   0.0000 
32    H17     -0.0030   -2.0810    0.6648 H       1  LIG   0.0631   0.0000 
33    H18     -0.4714   -2.5074   -1.0023 H       1  LIG   0.0289   0.0000 
@<TRIPOS>BOND
1     1     2     1
2     1     16    1
3     1     17    1
4     1     18    1
5     2     3     1
6     2     4     1
7     3     19    1
8     3     20    1
9     3     21    1
10    4     9     ar
11    4     5     ar
12    5     6     ar
13    6     7     ar
14    6     13    1
15    7     8     ar
16    8     9     ar
17    8     10    1
18    10    11    1
19    10    12    1
20    11    22    1
21    11    23    1
22    11    24    1
23    12    25    1
24    12    26    1
25    12    27    1
26    13    14    1
27    13    15    1
28    14    28    1
29    14    29    1
30    14    30    1
31    15    31    1
32    15    32    1
33    15    33    1
@<TRIPOS>SUBSTRUCTURE
1   LIG    1    
 
########## Number      : 146
########## Name        : ZINC00000907
########## Description : AM1BCC_CHARGES =   0.0002 ORIGINAL_CHARGES =   0.0000

@<TRIPOS>MOLECULE
ZINC00000907
23    24    1     0     0    
SMALL
USER_CHARGES
****
****
@<TRIPOS>ATOM
1     C1       3.4653   -9.2569   -0.6312 C.ar    1  LIG  -0.1565  -0.1500 
2     C2       3.4787   -9.1040    0.7504 C.ar    1  LIG  -0.1036  -0.1500 
3     C3       3.1984   -7.8577    1.3167 C.ar    1  LIG  -0.1843  -0.1500 
4     C4       2.8989   -6.7375    0.5182 C.ar    1  LIG   0.1684   0.1000 
5     C5       2.8915   -6.9162   -0.8710 C.ar    1  LIG  -0.1500  -0.1500 
6     C6       3.1720   -8.1638   -1.4406 C.ar    1  LIG  -0.1071  -0.1500 
7     N1       2.6278   -5.5174    1.1630 N.pl3   1  LIG  -0.7265  -0.6000 
8     C7       2.3004   -4.2309    0.7017 C.ar    1  LIG   0.9412   0.7200 
9     N2       2.1869   -3.9580   -0.6069 N.ar    1  LIG  -0.8122  -0.6200 
10    C8       1.8706   -2.6927   -0.9043 C.ar    1  LIG   0.7105   0.4700 
11    N3       1.6626   -1.6999   -0.0352 N.ar    1  LIG  -0.8132  -0.6200 
12    C9       1.7938   -2.0495    1.2516 C.ar    1  LIG   0.9346   0.7200 
13    N4       2.1092   -3.2949    1.6555 N.ar    1  LIG  -0.8584  -0.6200 
14    N5       1.5951   -1.0811    2.2167 N.pl3   1  LIG  -0.9585  -0.9000 
15    H1       2.6723   -5.5490    2.1760 H       1  LIG   0.4568   0.4000 
16    H2       1.3579   -0.1406    1.9369 H       1  LIG   0.4524   0.4000 
17    H3       1.6889   -1.3225    3.1924 H       1  LIG   0.4497   0.4000 
18    H4       3.6824  -10.2232   -1.0763 H       1  LIG   0.1333   0.1500 
19    H5       3.7066   -9.9518    1.3900 H       1  LIG   0.1320   0.1500 
20    H6       3.2159   -7.7667    2.4011 H       1  LIG   0.1300   0.1500 
21    H7       2.6698   -6.1002   -1.5499 H       1  LIG   0.1739   0.1500 
22    H8       3.1602   -8.2779   -2.5212 H       1  LIG   0.1336   0.1500 
23    H9       1.7737   -2.4495   -1.9552 H       1  LIG   0.0541   0.1500 
@<TRIPOS>BOND
1     1     6     ar
2     1     2     ar
3     1     18    1
4     2     3     ar
5     2     19    1
6     3     4     ar
7     3     20    1
8     4     5     ar
9     4     7     1
10    5     6     ar
11    5     21    1
12    6     22    1
13    7     8     1
14    7     15    1
15    8     13    ar
16    8     9     ar
17    9     10    ar
18    10    11    ar
19    10    23    1
20    11    12    ar
21    12    13    ar
22    12    14    1
23    14    16    1
24    14    17    1
@<TRIPOS>SUBSTRUCTURE
1   LIG    1    
 
########## Number      : 147
########## Name        : ZINC00000909
########## Description : AM1BCC_CHARGES =  -0.9998 ORIGINAL_CHARGES =  -1.0000

@<TRIPOS>MOLECULE
ZINC00000909
31    32    1     0     0    
SMALL
USER_CHARGES
****
****
@<TRIPOS>ATOM
1     C1       9.3309    2.7209    3.9703 C.ar    1  LIG  -0.1208  -0.1500 
2     C2       9.7820    2.4587    2.6775 C.ar    1  LIG  -0.1543  -0.1500 
3     C3       8.8725    2.3760    1.6222 C.ar    1  LIG  -0.0860  -0.1500 
4     C4       7.5061    2.5653    1.8598 C.ar    1  LIG  -0.1546   0.0862 
5     C5       7.0535    2.8158    3.1604 C.ar    1  LIG  -0.0820  -0.1500 
6     C6       7.9688    2.8966    4.2115 C.ar    1  LIG  -0.1526  -0.1500 
7     C7       6.5626    2.4569    0.7188 C.2     1  LIG   0.6089   0.3976 
8     O1       6.8518    1.7652   -0.2523 O.2     1  LIG  -0.5664  -0.5700 
9     C8       5.2667    3.1762    0.7291 C.ar    1  LIG  -0.2843   0.0862 
10    C9       5.2854    4.5580    0.9602 C.ar    1  LIG  -0.0811  -0.1500 
11    C10      4.0933    5.2713    0.9763 C.ar    1  LIG  -0.2072  -0.1500 
12    C11      2.8860    4.6081    0.7718 C.ar    1  LIG  -0.0866  -0.1500 
13    C12      2.8504    3.2213    0.5343 C.ar    1  LIG  -0.0888  -0.1435 
14    C13      4.0605    2.4924    0.4650 C.ar    1  LIG   0.2388   0.1000 
15    N1       4.0482    1.1073    0.2835 N.pl3   1  LIG  -0.8364  -0.9000 
16    C14      1.5014    2.5654    0.3479 C.3     1  LIG  -0.1732   0.0375 
17    C15      1.2572    2.2727   -1.1280 C.2     1  LIG   0.9171   0.9060 
18    O2       1.4534    1.0723   -1.4733 O.co2   1  LIG  -0.8603  -0.9000 
19    H1       3.2113    0.6727   -0.0902 H       1  LIG   0.4697   0.4000 
20    H2       4.9244    0.6368    0.0895 H       1  LIG   0.4037   0.4000 
21    H3      10.0402    2.7834    4.7907 H       1  LIG   0.1201   0.1500 
22    H4      10.8429    2.3172    2.4912 H       1  LIG   0.1237   0.1500 
23    H5       9.2431    2.1712    0.6210 H       1  LIG   0.1484   0.1500 
24    H6       5.9966    2.9368    3.3808 H       1  LIG   0.1570   0.1500 
25    H7       7.6182    3.0916    5.2211 H       1  LIG   0.1264   0.1500 
26    H8       6.2203    5.0879    1.1223 H       1  LIG   0.1136   0.1500 
27    H9       4.1011    6.3427    1.1540 H       1  LIG   0.1136   0.1500 
28    H10      1.9618    5.1813    0.7999 H       1  LIG   0.1286   0.1500 
29    H11      1.4392    1.6502    0.9487 H       1  LIG   0.0387   0.0000 
30    H12      0.6981    3.2142    0.7195 H       1  LIG   0.0392   0.0000 
31    O3       0.8689    3.2573   -1.8183 O.co2   1  LIG  -0.8127  -0.9000 
@<TRIPOS>BOND
1     1     6     ar
2     1     2     ar
3     1     21    1
4     2     3     ar
5     2     22    1
6     3     4     ar
7     3     23    1
8     4     5     ar
9     4     7     1
10    5     6     ar
11    5     24    1
12    6     25    1
13    7     8     2
14    7     9     1
15    9     14    ar
16    9     10    ar
17    10    11    ar
18    10    26    1
19    11    12    ar
20    11    27    1
21    12    13    ar
22    12    28    1
23    13    14    ar
24    13    16    1
25    14    15    1
26    15    19    1
27    15    20    1
28    16    17    1
29    16    29    1
30    16    30    1
31    17    18    2
32    17    31    1
@<TRIPOS>SUBSTRUCTURE
1   LIG    1    
 
########## Number      : 148
########## Name        : ZINC00000913
########## Description : AM1BCC_CHARGES =  -0.0001 ORIGINAL_CHARGES =   0.0000

@<TRIPOS>MOLECULE
ZINC00000913
33    34    1     0     0    
SMALL
USER_CHARGES
****
****
@<TRIPOS>ATOM
1     C1       5.6009   -8.5790    0.6788 C.ar    1  LIG  -0.2399  -0.1500 
2     C2       4.6933   -7.5510    0.9432 C.ar    1  LIG   0.0270  -0.1500 
3     C3       5.0733   -6.2323    0.7089 C.ar    1  LIG  -0.4466  -0.0090 
4     C4       6.3388   -5.9288    0.2092 C.ar    1  LIG   0.0416  -0.1500 
5     C5       7.2373   -6.9649   -0.0510 C.ar    1  LIG  -0.2419  -0.1500 
6     C6       6.8832   -8.2989    0.1885 C.ar    1  LIG   0.2432   0.1000 
7     N1       7.7718   -9.3260   -0.0906 N.pl3   1  LIG  -0.8584  -0.9000 
8     S1       3.9485   -4.9102    1.0420 S.o2    1  LIG   1.4537   1.3180 
9     O1       3.7677   -4.2185   -0.2205 O.2     1  LIG  -0.6675  -0.6500 
10    O2       2.8082   -5.4512    1.7572 O.2     1  LIG  -0.6653  -0.6500 
11    C7       4.7433   -3.8058    2.1700 C.ar    1  LIG  -0.4051  -0.0090 
12    C8       5.2193   -4.3069    3.3804 C.ar    1  LIG   0.0199  -0.1500 
13    C9       5.8573   -3.4489    4.2810 C.ar    1  LIG  -0.1921  -0.1500 
14    C10      6.0183   -2.0933    3.9753 C.ar    1  LIG   0.1448   0.1170 
15    C11      5.5275   -1.6097    2.7521 C.ar    1  LIG  -0.2220  -0.1500 
16    C12      4.8895   -2.4607    1.8474 C.ar    1  LIG   0.0045  -0.1500 
17    N2       6.6499   -1.1573    4.8255 N.am    1  LIG  -0.4756  -0.5470 
18    C13      7.2143   -1.3874    6.0733 C.2     1  LIG   0.7704   0.6900 
19    O3       7.2760   -2.4521    6.6809 O.2     1  LIG  -0.6209  -0.5700 
20    N3       7.7396   -0.2254    6.6096 N.am    1  LIG  -0.6612  -0.8000 
21    H1       8.7096   -9.1192   -0.4074 H       1  LIG   0.4234   0.4000 
22    H2       7.5279  -10.2847    0.1194 H       1  LIG   0.4235   0.4000 
23    H3       6.6963   -0.2038    4.4805 H       1  LIG   0.3189   0.3700 
24    H4       8.1858   -0.2396    7.5199 H       1  LIG   0.3254   0.3700 
25    H5       7.6989    0.6635    6.1257 H       1  LIG   0.2994   0.3700 
26    H6       5.2982   -9.6080    0.8602 H       1  LIG   0.1386   0.1500 
27    H7       3.7078   -7.8014    1.3242 H       1  LIG   0.1613   0.1500 
28    H8       6.6381   -4.9029    0.0143 H       1  LIG   0.1380   0.1500 
29    H9       8.2220   -6.7227   -0.4444 H       1  LIG   0.1370   0.1500 
30    H10      5.1015   -5.3554    3.6408 H       1  LIG   0.1438   0.1500 
31    H11      6.2132   -3.8773    5.2111 H       1  LIG   0.1831   0.1500 
32    H12      5.6369   -0.5596    2.4890 H       1  LIG   0.1351   0.1500 
33    H13      4.5195   -2.0551    0.9106 H       1  LIG   0.1638   0.1500 
@<TRIPOS>BOND
1     1     6     ar
2     1     2     ar
3     1     26    1
4     2     3     ar
5     2     27    1
6     3     4     ar
7     3     8     1
8     4     5     ar
9     4     28    1
10    5     6     ar
11    5     29    1
12    6     7     1
13    7     21    1
14    7     22    1
15    8     9     2
16    8     10    2
17    8     11    1
18    11    16    ar
19    11    12    ar
20    12    13    ar
21    12    30    1
22    13    14    ar
23    13    31    1
24    14    15    ar
25    14    17    1
26    15    16    ar
27    15    32    1
28    16    33    1
29    17    18    am
30    17    23    1
31    18    19    2
32    18    20    am
33    20    24    1
34    20    25    1
@<TRIPOS>SUBSTRUCTURE
1   LIG    1    
 
########## Number      : 149
########## Name        : ZINC00000920
########## Description : AM1BCC_CHARGES =  -1.0000 ORIGINAL_CHARGES =  -1.0000

@<TRIPOS>MOLECULE
ZINC00000920
16    16    1     0     0    
SMALL
USER_CHARGES
****
****
@<TRIPOS>ATOM
1     C1       5.0682   -8.2233   -0.8500 C.ar    1  LIG  -0.0842  -0.1500 
2     C2       4.0894   -7.2372   -1.0165 C.ar    1  LIG  -0.2017  -0.1500 
3     C3       2.8269   -7.5589   -1.5217 C.ar    1  LIG   0.0679   0.1000 
4     C4       2.5576   -8.8926   -1.8401 C.ar    1  LIG  -0.2028  -0.1500 
5     C5       3.5342   -9.8811   -1.6747 C.ar    1  LIG  -0.0842  -0.1500 
6     C6       4.8058   -9.5610   -1.1782 C.ar    1  LIG  -0.1471  -0.1790 
7     C7       5.8602  -10.6257   -0.9993 C.2     1  LIG   0.9092   0.9790 
8     O1       6.9879  -10.2578   -0.5429 O.co2   1  LIG  -0.8357  -0.9000 
9     N1       1.8511   -6.5849   -1.6646 N.pl3   1  LIG  -0.7966  -0.9000 
10    H1       0.9548   -6.8163   -2.0715 H       1  LIG   0.3507   0.4000 
11    H2       2.0660   -5.6154   -1.4741 H       1  LIG   0.3508   0.4000 
12    H3       6.0390   -7.9290   -0.4575 H       1  LIG   0.1496   0.1500 
13    H4       4.3268   -6.2108   -0.7470 H       1  LIG   0.1053   0.1500 
14    H5       1.5808   -9.1783   -2.2233 H       1  LIG   0.1050   0.1500 
15    H6       3.2841  -10.9062   -1.9387 H       1  LIG   0.1496   0.1500 
16    O2       5.5466  -11.8155   -1.3178 O.co2   1  LIG  -0.8358  -0.9000 
@<TRIPOS>BOND
1     1     6     ar
2     1     2     ar
3     1     12    1
4     2     3     ar
5     2     13    1
6     3     4     ar
7     3     9     1
8     4     5     ar
9     4     14    1
10    5     6     ar
11    5     15    1
12    6     7     1
13    7     8     2
14    7     16    1
15    9     10    1
16    9     11    1
@<TRIPOS>SUBSTRUCTURE
1   LIG    1    
 
########## Number      : 150
########## Name        : ZINC00000922
########## Description : AM1BCC_CHARGES =  -0.9999 ORIGINAL_CHARGES =  -1.0000

@<TRIPOS>MOLECULE
ZINC00000922
17    17    1     0     0    
SMALL
USER_CHARGES
****
****
@<TRIPOS>ATOM
1     C1       5.1248   -7.7057   -2.6343 C.ar    1  LIG  -0.2304  -0.1500 
2     C2       3.9823   -6.9398   -2.8868 C.ar    1  LIG  -0.0645  -0.1500 
3     C3       3.1835   -6.4668   -1.8351 C.ar    1  LIG  -0.1515  -0.1790 
4     C4       3.5552   -6.7981   -0.5264 C.ar    1  LIG   0.1628   0.0825 
5     C5       4.7000   -7.5641   -0.2729 C.ar    1  LIG  -0.2895  -0.1500 
6     C6       5.5042   -8.0137   -1.3251 C.ar    1  LIG   0.1061   0.1000 
7     N1       6.6205   -8.7989   -1.0781 N.pl3   1  LIG  -0.7995  -0.9000 
8     O1       2.7767   -6.3942    0.5250 O.3     1  LIG  -0.4590  -0.5325 
9     C7       1.9700   -5.6366   -2.1488 C.2     1  LIG   0.9211   0.9790 
10    O2       1.2899   -5.9848   -3.1645 O.co2   1  LIG  -0.8404  -0.9000 
11    H1       6.9242   -8.9679   -0.1285 H       1  LIG   0.3534   0.4000 
12    H2       7.2289   -9.0703   -1.8389 H       1  LIG   0.3556   0.4000 
13    H3       3.1839   -6.6935    1.3547 H       1  LIG   0.3830   0.4500 
14    H4       5.7185   -8.0572   -3.4748 H       1  LIG   0.1088   0.1500 
15    H5       3.7238   -6.7100   -3.9183 H       1  LIG   0.1482   0.1500 
16    H6       4.9668   -7.8169    0.7507 H       1  LIG   0.1077   0.1500 
17    O3       1.7270   -4.6443   -1.3944 O.co2   1  LIG  -0.8118  -0.9000 
@<TRIPOS>BOND
1     1     6     ar
2     1     2     ar
3     1     14    1
4     2     3     ar
5     2     15    1
6     3     4     ar
7     3     9     1
8     4     5     ar
9     4     8     1
10    5     6     ar
11    5     16    1
12    6     7     1
13    7     11    1
14    7     12    1
15    8     13    1
16    9     10    2
17    9     17    1
@<TRIPOS>SUBSTRUCTURE
1   LIG    1    
 
########## Number      : 151
########## Name        : ZINC00000923
########## Description : AM1BCC_CHARGES =  -0.0000 ORIGINAL_CHARGES =  -0.0000

@<TRIPOS>MOLECULE
ZINC00000923
22    23    1     0     0    
SMALL
USER_CHARGES
****
****
@<TRIPOS>ATOM
1     C1       4.0848   -8.3987   -1.2227 C.ar    1  LIG  -0.1305  -0.1500 
2     C2       3.6975   -7.4312   -2.1473 C.ar    1  LIG  -0.1321  -0.1500 
3     C3       2.7346   -6.4800   -1.8037 C.ar    1  LIG  -0.1214  -0.1500 
4     C4       2.1472   -6.4887   -0.5300 C.ar    1  LIG   0.0054   0.0530 
5     C5       2.5470   -7.4663    0.3931 C.ar    1  LIG  -0.1262  -0.1500 
6     C6       3.5106   -8.4161    0.0467 C.ar    1  LIG  -0.1303  -0.1500 
7     C7       1.1437   -5.4834   -0.1770 C.2     1  LIG  -0.2480  -0.0130 
8     C8       1.1966   -4.1011   -0.1944 C.2     1  LIG   0.5990   0.3102 
9     N1       0.0420   -3.4484    0.1818 N.2     1  LIG  -0.7235  -0.5653 
10    C9      -0.8949   -4.3193    0.4870 C.2     1  LIG   0.6229   0.4621 
11    S1      -0.4248   -5.9691    0.3330 S.3     1  LIG  -0.1075  -0.0800 
12    N2      -2.1393   -4.0026    0.8928 N.pl3   1  LIG  -0.8897  -0.8840 
13    N3       2.2774   -3.3729   -0.5329 N.pl3   1  LIG  -0.8965  -0.8830 
14    H1      -2.4347   -3.0373    0.9894 H       1  LIG   0.4033   0.4000 
15    H2      -2.8283   -4.7120    1.1169 H       1  LIG   0.3942   0.4000 
16    H3       3.1666   -3.7835   -0.7986 H       1  LIG   0.4014   0.4000 
17    H4       2.2563   -2.3584   -0.5224 H       1  LIG   0.4033   0.4000 
18    H5       4.8340   -9.1381   -1.4907 H       1  LIG   0.1311   0.1500 
19    H6       4.1440   -7.4172   -3.1376 H       1  LIG   0.1318   0.1500 
20    H7       2.4433   -5.7378   -2.5438 H       1  LIG   0.1460   0.1500 
21    H8       2.1207   -7.4952    1.3934 H       1  LIG   0.1358   0.1500 
22    H9       3.8140   -9.1684    0.7693 H       1  LIG   0.1315   0.1500 
@<TRIPOS>BOND
1     1     6     ar
2     1     2     ar
3     1     18    1
4     2     3     ar
5     2     19    1
6     3     4     ar
7     3     20    1
8     4     5     ar
9     4     7     1
10    5     6     ar
11    5     21    1
12    6     22    1
13    7     11    1
14    7     8     2
15    8     9     1
16    8     13    1
17    9     10    2
18    10    11    1
19    10    12    1
20    12    14    1
21    12    15    1
22    13    16    1
23    13    17    1
@<TRIPOS>SUBSTRUCTURE
1   LIG    1    
 
########## Number      : 152
########## Name        : ZINC00000925
########## Description : AM1BCC_CHARGES =   0.0001 ORIGINAL_CHARGES =   0.0000

@<TRIPOS>MOLECULE
ZINC00000925
27    27    1     0     0    
SMALL
USER_CHARGES
****
****
@<TRIPOS>ATOM
1     C1       4.5670   -7.8257    2.5917 C.3     1  LIG  -0.0645   0.1382 
2     C2       3.8684   -7.0888    1.4801 C.2     1  LIG  -0.1565  -0.2764 
3     C3       3.8654   -7.5926    0.2346 C.2     1  LIG  -0.2077  -0.3000 
4     C4       3.2044   -5.7967    1.9132 C.3     1  LIG   0.1169   0.4383 
5     N1       2.6987   -4.9800    0.7960 N.am    1  LIG  -0.3887  -0.4691 
6     C5       3.5721   -4.1237    0.1147 C.2     1  LIG   0.3192   0.2090 
7     C6       3.0904   -3.3575   -0.8773 C.2     1  LIG  -0.4172  -0.1356 
8     C7       1.6761   -3.3868   -1.2825 C.2     1  LIG   0.7349   0.6156 
9     O1       1.3016   -2.6474   -2.1900 O.2     1  LIG  -0.6253  -0.5700 
10    N2       0.8800   -4.2799   -0.5771 N.am    1  LIG  -0.4891  -0.4201 
11    C8       1.3315   -5.1022    0.4729 C.2     1  LIG   0.8157   0.6900 
12    O2       0.5720   -5.8767    1.0647 O.2     1  LIG  -0.6430  -0.5700 
13    C9      -0.5305   -4.3804   -0.9309 C.3     1  LIG   0.0807   0.3001 
14    N3       4.9145   -4.0368    0.4067 N.pl3   1  LIG  -0.8356  -0.9000 
15    H1       5.3357   -4.6740    1.0683 H       1  LIG   0.4177   0.4000 
16    H2       5.5098   -3.4140   -0.1254 H       1  LIG   0.4219   0.4000 
17    H3       3.8562   -8.0745    3.3865 H       1  LIG   0.0520   0.0000 
18    H4       5.0232   -8.7606    2.2493 H       1  LIG   0.0488   0.0000 
19    H5       5.3619   -7.2044    3.0170 H       1  LIG   0.0419   0.0000 
20    H6       3.3662   -7.0997   -0.5917 H       1  LIG   0.1230   0.1500 
21    H7       4.3643   -8.5293    0.0061 H       1  LIG   0.1200   0.1500 
22    H8       2.3734   -6.0489    2.5832 H       1  LIG   0.1129   0.0000 
23    H9       3.8917   -5.1877    2.5125 H       1  LIG   0.0644   0.0000 
24    H10      3.7305   -2.6795   -1.4334 H       1  LIG   0.1741   0.1500 
25    H11     -0.7983   -3.7233   -1.7617 H       1  LIG   0.0840   0.0000 
26    H12     -0.7534   -5.4169   -1.2039 H       1  LIG   0.0494   0.0000 
27    H13     -1.1323   -4.1188   -0.0546 H       1  LIG   0.0502   0.0000 
@<TRIPOS>BOND
1     1     2     1
2     1     17    1
3     1     18    1
4     1     19    1
5     2     3     2
6     2     4     1
7     3     20    1
8     3     21    1
9     4     5     1
10    4     22    1
11    4     23    1
12    5     11    am
13    5     6     1
14    6     7     2
15    6     14    1
16    7     8     1
17    7     24    1
18    8     9     2
19    8     10    am
20    10    11    am
21    10    13    1
22    11    12    2
23    13    25    1
24    13    26    1
25    13    27    1
26    14    15    1
27    14    16    1
@<TRIPOS>SUBSTRUCTURE
1   LIG    1    
 
########## Number      : 153
########## Name        : ZINC00000926
########## Description : AM1BCC_CHARGES =  -0.0001 ORIGINAL_CHARGES =   0.0000

@<TRIPOS>MOLECULE
ZINC00000926
28    28    1     0     0    
SMALL
USER_CHARGES
****
****
@<TRIPOS>ATOM
1     C1       5.9842  -10.0496   -1.1576 C.3     1  LIG  -0.1792   0.0610 
2     C2       5.4008   -8.8380   -0.4748 C.2     1  LIG   0.6655   0.5690 
3     O1       5.4277   -8.7310    0.7467 O.2     1  LIG  -0.5795  -0.5700 
4     N1       4.8745   -7.9450   -1.3982 N.am    1  LIG  -0.4754  -0.5470 
5     C3       4.2479   -6.7047   -1.1347 C.ar    1  LIG   0.0859   0.1170 
6     C4       4.0592   -6.1751    0.1457 C.ar    1  LIG  -0.1654  -0.1500 
7     C5       3.4279   -4.9378    0.3165 C.ar    1  LIG  -0.0605  -0.1500 
8     C6       2.9814   -4.2229   -0.7960 C.ar    1  LIG  -0.1603   0.0862 
9     C7       3.1629   -4.7387   -2.0784 C.ar    1  LIG  -0.0882  -0.1500 
10    C8       3.7937   -5.9743   -2.2432 C.ar    1  LIG  -0.1953  -0.1500 
11    C9       2.3130   -2.9175   -0.6510 C.2     1  LIG   0.3786   0.3038 
12    N2       2.1114   -2.3789    0.5076 N.2     1  LIG  -0.4078  -0.5120 
13    N3       1.4840   -1.1769    0.4639 N.pl3   1  LIG  -0.3096  -0.3680 
14    C10      1.1961   -0.4729    1.6177 C.2     1  LIG   0.5922   0.5000 
15    S1       1.5447   -0.9401    3.1867 S.2     1  LIG  -0.4964  -0.3800 
16    N4       0.5592    0.7216    1.3751 N.pl3   1  LIG  -0.6502  -0.8000 
17    H1       4.9416   -8.2017   -2.3799 H       1  LIG   0.3142   0.3700 
18    H2       1.2290   -0.8042   -0.4446 H       1  LIG   0.2913   0.3700 
19    H3       0.2940    1.3315    2.1409 H       1  LIG   0.3461   0.3700 
20    H4       0.3346    1.0319    0.4370 H       1  LIG   0.2997   0.3700 
21    H5       6.3912  -10.7358   -0.4096 H       1  LIG   0.0835   0.0000 
22    H6       5.2058  -10.5667   -1.7258 H       1  LIG   0.0619   0.0000 
23    H7       6.7887   -9.7443   -1.8327 H       1  LIG   0.0627   0.0000 
24    H8       4.3886   -6.6930    1.0394 H       1  LIG   0.1787   0.1500 
25    H9       3.2954   -4.5519    1.3240 H       1  LIG   0.1665   0.1500 
26    H10      2.8219   -4.1965   -2.9563 H       1  LIG   0.1281   0.1500 
27    H11      3.9259   -6.3599   -3.2520 H       1  LIG   0.1284   0.1500 
28    H12      1.9921   -2.4212   -1.5858 H       1  LIG  -0.0156   0.0600 
@<TRIPOS>BOND
1     1     2     1
2     1     21    1
3     1     22    1
4     1     23    1
5     2     3     2
6     2     4     am
7     4     5     1
8     4     17    1
9     5     10    ar
10    5     6     ar
11    6     7     ar
12    6     24    1
13    7     8     ar
14    7     25    1
15    8     9     ar
16    8     11    1
17    9     10    ar
18    9     26    1
19    10    27    1
20    11    12    2
21    11    28    1
22    12    13    1
23    13    14    1
24    13    18    1
25    14    15    2
26    14    16    1
27    16    19    1
28    16    20    1
@<TRIPOS>SUBSTRUCTURE
1   LIG    1    
 
########## Number      : 154
########## Name        : ZINC00000932
########## Description : AM1BCC_CHARGES =  -0.0001 ORIGINAL_CHARGES =  -0.0000

@<TRIPOS>MOLECULE
ZINC00000932
41    42    1     0     0    
SMALL
USER_CHARGES
****
****
@<TRIPOS>ATOM
1     C1       7.9642   -9.6455    2.3512 C.3     1  LIG   0.0737   0.2560 
2     N1       8.0643   -8.2560    1.7799 N.4     1  LIG  -0.1440  -0.0180 
3     C2       8.1825   -8.3534    0.2837 C.3     1  LIG   0.0700   0.2560 
4     C3       6.8252   -7.4716    2.1781 C.3     1  LIG   0.0859   0.2560 
5     C4       6.8154   -6.0185    1.7216 C.3     1  LIG   0.1267   0.2800 
6     O1       5.6536   -5.3954    2.2734 O.3     1  LIG  -0.4255  -0.5600 
7     C5       5.5736   -3.9907    1.9841 C.3     1  LIG   0.2400   0.5670 
8     C6       4.1113   -3.5847    1.8988 C.ar    1  LIG  -0.0822  -0.1435 
9     C7       3.1483   -4.1093    2.7753 C.ar    1  LIG  -0.0980  -0.1500 
10    C8       1.8143   -3.7054    2.6920 C.ar    1  LIG  -0.1338  -0.1500 
11    C9       1.4261   -2.7689    1.7366 C.ar    1  LIG  -0.1255  -0.1500 
12    C10      2.3714   -2.2335    0.8648 C.ar    1  LIG  -0.1321  -0.1500 
13    C11      3.7058   -2.6361    0.9464 C.ar    1  LIG  -0.1211  -0.1500 
14    C12      6.3312   -3.1732    3.0165 C.ar    1  LIG  -0.1146  -0.1435 
15    C13      6.3328   -3.5242    4.3754 C.ar    1  LIG  -0.0996  -0.1500 
16    C14      7.0224   -2.7488    5.3093 C.ar    1  LIG  -0.1303  -0.1500 
17    C15      7.7140   -1.6113    4.8985 C.ar    1  LIG  -0.1220  -0.1500 
18    C16      7.7154   -1.2468    3.5540 C.ar    1  LIG  -0.1310  -0.1500 
19    C17      7.0267   -2.0209    2.6184 C.ar    1  LIG  -0.1183  -0.1500 
20    O2       9.1869   -7.6548    2.2871 O.3     1  LIG  -0.6448  -0.7500 
21    H1       7.8942   -9.5529    3.4384 H       1  LIG   0.0768   0.0000 
22    H2       7.0744  -10.1226    1.9327 H       1  LIG   0.0431   0.0000 
23    H3       8.8738  -10.1852    2.0733 H       1  LIG   0.0770   0.0000 
24    H4       8.3703   -7.3516   -0.1086 H       1  LIG   0.0770   0.0000 
25    H5       9.0341   -9.0027    0.0617 H       1  LIG   0.0740   0.0000 
26    H6       7.2516   -8.7731   -0.1050 H       1  LIG   0.0442   0.0000 
27    H7       5.9597   -8.0145    1.7798 H       1  LIG   0.0575   0.0000 
28    H8       6.7751   -7.5194    3.2731 H       1  LIG   0.0862   0.0000 
29    H9       7.7166   -5.4988    2.0638 H       1  LIG   0.0840   0.0000 
30    H10      6.7655   -5.9561    0.6298 H       1  LIG   0.0271   0.0000 
31    H11      6.0218   -3.8295    0.9935 H       1  LIG   0.0502   0.0000 
32    H12      3.4292   -4.8373    3.5323 H       1  LIG   0.1431   0.1500 
33    H13      1.0789   -4.1209    3.3751 H       1  LIG   0.1315   0.1500 
34    H14      0.3883   -2.4548    1.6733 H       1  LIG   0.1308   0.1500 
35    H15      2.0708   -1.5003    0.1218 H       1  LIG   0.1311   0.1500 
36    H16      4.4288   -2.2020    0.2600 H       1  LIG   0.1289   0.1500 
37    H17      5.7972   -4.4059    4.7182 H       1  LIG   0.1411   0.1500 
38    H18      7.0184   -3.0326    6.3578 H       1  LIG   0.1325   0.1500 
39    H19      8.2498   -1.0085    5.6260 H       1  LIG   0.1313   0.1500 
40    H20      8.2519   -0.3584    3.2331 H       1  LIG   0.1313   0.1500 
41    H21      7.0368   -1.7176    1.5743 H       1  LIG   0.1277   0.1500 
@<TRIPOS>BOND
1     1     2     1
2     1     21    1
3     1     22    1
4     1     23    1
5     2     3     1
6     2     4     1
7     2     20    1
8     3     24    1
9     3     25    1
10    3     26    1
11    4     5     1
12    4     27    1
13    4     28    1
14    5     6     1
15    5     29    1
16    5     30    1
17    6     7     1
18    7     8     1
19    7     14    1
20    7     31    1
21    8     13    ar
22    8     9     ar
23    9     10    ar
24    9     32    1
25    10    11    ar
26    10    33    1
27    11    12    ar
28    11    34    1
29    12    13    ar
30    12    35    1
31    13    36    1
32    14    19    ar
33    14    15    ar
34    15    16    ar
35    15    37    1
36    16    17    ar
37    16    38    1
38    17    18    ar
39    17    39    1
40    18    19    ar
41    18    40    1
42    19    41    1
@<TRIPOS>SUBSTRUCTURE
1   LIG    1    
 
########## Number      : 155
########## Name        : ZINC00000934
########## Description : AM1BCC_CHARGES =   1.0001 ORIGINAL_CHARGES =   1.0000

@<TRIPOS>MOLECULE
ZINC00000934
37    38    1     0     0    
SMALL
USER_CHARGES
****
****
@<TRIPOS>ATOM
1     C1       6.6765   -8.9656   -1.2339 C.3     1  LIG  -0.0969   0.0000 
2     C2       5.7656   -7.8101   -0.8510 C.3     1  LIG  -0.0772   0.0000 
3     C3       5.1369   -8.0269    0.5245 C.3     1  LIG  -0.1265   0.1435 
4     C4       4.2379   -6.8811    0.8950 C.ar    1  LIG   0.7254   0.4765 
5     N1       4.7898   -5.8445    1.5486 N.ar    1  LIG  -0.7099  -0.6200 
6     C5       3.9581   -4.8223    1.8281 C.ar    1  LIG   0.4757   0.1600 
7     C6       2.6154   -4.7809    1.4794 C.ar    1  LIG  -0.4827  -0.1435 
8     C7       2.1345   -5.9232    0.8381 C.ar    1  LIG   0.7138   0.4100 
9     N2       2.9450   -6.9593    0.5193 N.ar    1  LIG  -0.7441  -0.6200 
10    N3       0.8040   -6.0166    0.4407 N.pl3   1  LIG  -0.9357  -0.9000 
11    C8       1.7214   -3.6193    1.8196 C.3     1  LIG   0.0785   0.6315 
12    N4       2.4459   -2.3228    1.9534 N.ar    1  LIG   0.0237  -0.2100 
13    C9       2.7832   -1.6756    0.8091 C.ar    1  LIG  -0.0220   0.2110 
14    C10      3.4317   -0.4511    0.8299 C.ar    1  LIG  -0.1445  -0.1500 
15    C11      3.7344    0.1286    2.0490 C.ar    1  LIG  -0.0060  -0.1500 
16    C12      3.3850   -0.5290    3.2202 C.ar    1  LIG  -0.1532  -0.1500 
17    C13      2.7372   -1.7732    3.1689 C.ar    1  LIG   0.0398   0.2175 
18    C14      2.3643   -2.4631    4.4484 C.3     1  LIG  -0.0947   0.1435 
19    H1       0.0843   -5.6002    1.0167 H       1  LIG   0.4147   0.4000 
20    H2       0.5513   -6.8654   -0.0525 H       1  LIG   0.4472   0.4000 
21    H3       7.1161   -8.7908   -2.2209 H       1  LIG   0.0473   0.0000 
22    H4       7.4930   -9.0767   -0.5132 H       1  LIG   0.0413   0.0000 
23    H5       6.1203   -9.9076   -1.2717 H       1  LIG   0.0420   0.0000 
24    H6       6.3439   -6.8781   -0.8588 H       1  LIG   0.0477   0.0000 
25    H7       4.9821   -7.7025   -1.6112 H       1  LIG   0.0509   0.0000 
26    H8       4.5562   -8.9572    0.5333 H       1  LIG   0.0815   0.0000 
27    H9       5.9189   -8.1321    1.2861 H       1  LIG   0.0822   0.0000 
28    H10      4.4384   -4.0074    2.3602 H       1  LIG   0.0140   0.1500 
29    H11      0.9789   -3.4502    1.0289 H       1  LIG   0.0948   0.0000 
30    H12      1.1620   -3.8261    2.7352 H       1  LIG   0.0909   0.0000 
31    H13      2.5229   -2.1619   -0.1253 H       1  LIG   0.2123   0.1500 
32    H14      3.6944    0.0472   -0.0978 H       1  LIG   0.1997   0.1500 
33    H15      4.2387    1.0896    2.0899 H       1  LIG   0.1917   0.1500 
34    H16      3.6212   -0.0692    4.1767 H       1  LIG   0.1950   0.1500 
35    H17      2.8321   -1.9802    5.3130 H       1  LIG   0.0980   0.0000 
36    H18      1.2801   -2.4281    4.5911 H       1  LIG   0.0922   0.0000 
37    H19      2.7020   -3.5033    4.4427 H       1  LIG   0.0932   0.0000 
@<TRIPOS>BOND
1     1     2     1
2     1     21    1
3     1     22    1
4     1     23    1
5     2     3     1
6     2     24    1
7     2     25    1
8     3     4     1
9     3     26    1
10    3     27    1
11    4     9     ar
12    4     5     ar
13    5     6     ar
14    6     7     ar
15    6     28    1
16    7     8     ar
17    7     11    1
18    8     9     ar
19    8     10    1
20    10    19    1
21    10    20    1
22    11    12    1
23    11    29    1
24    11    30    1
25    12    17    ar
26    12    13    ar
27    13    14    ar
28    13    31    1
29    14    15    ar
30    14    32    1
31    15    16    ar
32    15    33    1
33    16    17    ar
34    16    34    1
35    17    18    1
36    18    35    1
37    18    36    1
38    18    37    1
@<TRIPOS>SUBSTRUCTURE
1   LIG    1    
 
########## Number      : 156
########## Name        : ZINC00000937
########## Description : AM1BCC_CHARGES =  -0.0001 ORIGINAL_CHARGES =   0.0000

@<TRIPOS>MOLECULE
ZINC00000937
47    48    1     0     0    
SMALL
USER_CHARGES
****
****
@<TRIPOS>ATOM
1     C1       3.6963   -4.6215   -6.9971 C.3     1  LIG  -0.0926   0.0000 
2     C2       3.9440   -3.9222   -5.6701 C.3     1  LIG  -0.0757   0.0000 
3     C3       4.8023   -4.7806   -4.7384 C.3     1  LIG  -0.0250   0.1435 
4     C4       5.0466   -4.0903   -3.4117 C.ar    1  LIG  -0.0900  -0.1435 
5     C5       6.2057   -3.3039   -3.2790 C.ar    1  LIG  -0.0500  -0.1500 
6     C6       6.4474   -2.5879   -2.1044 C.ar    1  LIG  -0.1918   0.0862 
7     C7       5.5359   -2.6336   -1.0448 C.ar    1  LIG   0.1643   0.1000 
8     C8       4.3806   -3.4104   -1.1769 C.ar    1  LIG  -0.2199  -0.1500 
9     C9       4.1169   -4.1524   -2.3467 C.ar    1  LIG   0.1631   0.1000 
10    N1       2.9580   -4.9355   -2.4438 N.pl3   1  LIG  -0.6425  -0.8382 
11    C10      1.6808   -4.2623   -2.1965 C.3     1  LIG   0.1792   0.3691 
12    C11      0.5463   -4.9057   -2.9796 C.3     1  LIG  -0.0947   0.0000 
13    C12      3.1225   -6.3633   -2.1471 C.3     1  LIG   0.1788   0.3691 
14    C13      2.9742   -6.6741   -0.6645 C.3     1  LIG  -0.1307   0.0000 
15    N2       5.7920   -1.9080    0.1214 N.pl3   1  LIG  -0.6062  -0.6000 
16    C14      6.9219   -1.1474    0.2490 C.2     1  LIG   0.1859  -0.0500 
17    C15      7.8811   -1.0065   -0.6816 C.2     1  LIG  -0.3317   0.0288 
18    C16      7.6761   -1.7582   -1.9668 C.2     1  LIG   0.5993   0.4694 
19    O1       8.4859   -1.7020   -2.8849 O.2     1  LIG  -0.5274  -0.5700 
20    C17      9.0808   -0.1538   -0.4538 C.2     1  LIG   0.6616   0.7056 
21    O2       9.9702   -0.0085   -1.2808 O.2     1  LIG  -0.5064  -0.5700 
22    O3       9.0487    0.4276    0.7759 O.3     1  LIG  -0.4754  -0.4300 
23    C18     10.1635    1.2692    1.0881 C.3     1  LIG   0.1324   0.2800 
24    H1       5.1350   -1.9396    0.8901 H       1  LIG   0.4553   0.4000 
25    H2       3.0840   -3.9909   -7.6493 H       1  LIG   0.0333   0.0000 
26    H3       4.6391   -4.8296   -7.5131 H       1  LIG   0.0324   0.0000 
27    H4       3.1687   -5.5690   -6.8481 H       1  LIG   0.0323   0.0000 
28    H5       4.4374   -2.9606   -5.8571 H       1  LIG   0.0411   0.0000 
29    H6       2.9795   -3.6961   -5.2005 H       1  LIG   0.0515   0.0000 
30    H7       4.3326   -5.7574   -4.5839 H       1  LIG   0.0564   0.0000 
31    H8       5.7658   -4.9984   -5.2176 H       1  LIG   0.0451   0.0000 
32    H9       6.9104   -3.2480   -4.1061 H       1  LIG   0.1672   0.1500 
33    H10      3.6762   -3.4522   -0.3479 H       1  LIG   0.1361   0.1500 
34    H11      1.4425   -4.2582   -1.1268 H       1  LIG   0.0119   0.0000 
35    H12      1.7431   -3.2138   -2.5165 H       1  LIG   0.0536   0.0000 
36    H13     -0.3681   -4.3132   -2.8741 H       1  LIG   0.0380   0.0000 
37    H14      0.7905   -4.9726   -4.0449 H       1  LIG   0.0509   0.0000 
38    H15      0.3294   -5.9148   -2.6161 H       1  LIG   0.0352   0.0000 
39    H16      2.3835   -6.9418   -2.7122 H       1  LIG   0.0559   0.0000 
40    H17      4.1017   -6.7240   -2.4856 H       1  LIG   0.0577   0.0000 
41    H18      3.1170   -7.7455   -0.4904 H       1  LIG   0.0460   0.0000 
42    H19      3.7143   -6.1351   -0.0653 H       1  LIG   0.0381   0.0000 
43    H20      1.9794   -6.4066   -0.2955 H       1  LIG   0.0355   0.0000 
44    H21      6.9579   -0.6556    1.2147 H       1  LIG   0.1770   0.1500 
45    H22     10.0150    1.6696    2.0945 H       1  LIG   0.0537   0.0000 
46    H23     11.0916    0.6899    1.0748 H       1  LIG   0.0454   0.0000 
47    H24     10.2175    2.1044    0.3831 H       1  LIG   0.0457   0.0000 
@<TRIPOS>BOND
1     1     2     1
2     1     25    1
3     1     26    1
4     1     27    1
5     2     3     1
6     2     28    1
7     2     29    1
8     3     4     1
9     3     30    1
10    3     31    1
11    4     9     ar
12    4     5     ar
13    5     6     ar
14    5     32    1
15    6     7     ar
16    6     18    1
17    7     8     ar
18    7     15    1
19    8     9     ar
20    8     33    1
21    9     10    1
22    10    11    1
23    10    13    1
24    11    12    1
25    11    34    1
26    11    35    1
27    12    36    1
28    12    37    1
29    12    38    1
30    13    14    1
31    13    39    1
32    13    40    1
33    14    41    1
34    14    42    1
35    14    43    1
36    15    24    1
37    15    16    1
38    16    44    1
39    16    17    2
40    17    20    1
41    17    18    1
42    18    19    2
43    20    21    2
44    20    22    1
45    22    23    1
46    23    45    1
47    23    46    1
48    23    47    1
@<TRIPOS>SUBSTRUCTURE
1   LIG    1    
 
########## Number      : 157
########## Name        : ZINC00000939
########## Description : AM1BCC_CHARGES =   0.0003 ORIGINAL_CHARGES =  -0.0000

@<TRIPOS>MOLECULE
ZINC00000939
27    28    1     0     0    
SMALL
USER_CHARGES
****
****
@<TRIPOS>ATOM
1     C1       3.8147   -7.4247    3.1347 C.ar    1  LIG  -0.1758  -0.1500 
2     C2       3.8634   -8.8122    3.2868 C.ar    1  LIG  -0.0899  -0.1500 
3     C3       4.7060   -9.5750    2.4786 C.ar    1  LIG  -0.0103   0.1770 
4     C4       5.4983   -8.9425    1.5166 C.ar    1  LIG   0.0445   0.1770 
5     C5       5.4477   -7.5491    1.3660 C.ar    1  LIG  -0.1468  -0.1500 
6     C6       4.6074   -6.7787    2.1761 C.ar    1  LIG   0.0781   0.1170 
7     N1       4.4897   -5.3701    2.0934 N.am    1  LIG  -0.4592  -0.5470 
8     C7       5.2001   -4.5144    1.2640 C.2     1  LIG   0.6928   0.5438 
9     O1       6.1085   -4.8057    0.4936 O.2     1  LIG  -0.6080  -0.5700 
10    C8       4.8210   -3.0790    1.3743 C.ar    1  LIG  -0.2353   0.0862 
11    C9       3.4753   -2.7165    1.5295 C.ar    1  LIG  -0.0662  -0.1500 
12    C10      3.1254   -1.3677    1.6297 C.ar    1  LIG  -0.0312   0.1770 
13    C11      4.1000   -0.3731    1.5700 C.ar    1  LIG  -0.0639  -0.1500 
14    C12      5.4371   -0.7280    1.3990 C.ar    1  LIG  -0.1625  -0.1500 
15    C13      5.7954   -2.0732    1.2932 C.ar    1  LIG   0.2007   0.0825 
16    O2       7.1284   -2.3338    1.1224 O.3     1  LIG  -0.4940  -0.5325 
17    Cl1      1.4710   -0.9285    1.8239 Cl      1  LIG  -0.0830  -0.1770 
18    Cl2      6.5616   -9.8280    0.4787 Cl      1  LIG  -0.0621  -0.1770 
19    Cl3      4.7236  -11.2864    2.7128 Cl      1  LIG  -0.0672  -0.1770 
20    H1       3.8249   -4.9582    2.7427 H       1  LIG   0.3260   0.3700 
21    H2       7.2451   -3.2834    0.9418 H       1  LIG   0.4599   0.4500 
22    H3       3.1483   -6.8548    3.7788 H       1  LIG   0.1386   0.1500 
23    H4       3.2374   -9.2835    4.0407 H       1  LIG   0.1530   0.1500 
24    H5       6.0708   -7.0930    0.6043 H       1  LIG   0.1915   0.1500 
25    H6       2.6939   -3.4721    1.5549 H       1  LIG   0.1499   0.1500 
26    H7       3.8320    0.6772    1.6483 H       1  LIG   0.1562   0.1500 
27    H8       6.1965    0.0477    1.3449 H       1  LIG   0.1645   0.1500 
@<TRIPOS>BOND
1     1     6     ar
2     1     2     ar
3     1     22    1
4     2     3     ar
5     2     23    1
6     3     4     ar
7     3     19    1
8     4     5     ar
9     4     18    1
10    5     6     ar
11    5     24    1
12    6     7     1
13    7     8     am
14    7     20    1
15    8     9     2
16    8     10    1
17    10    15    ar
18    10    11    ar
19    11    12    ar
20    11    25    1
21    12    13    ar
22    12    17    1
23    13    14    ar
24    13    26    1
25    14    15    ar
26    14    27    1
27    15    16    1
28    16    21    1
@<TRIPOS>SUBSTRUCTURE
1   LIG    1    
 
########## Number      : 158
########## Name        : ZINC00000941
########## Description : AM1BCC_CHARGES =   0.0005 ORIGINAL_CHARGES =   0.0000

@<TRIPOS>MOLECULE
ZINC00000941
41    42    1     0     0    
SMALL
USER_CHARGES
****
****
@<TRIPOS>ATOM
1     C1       7.1992   -9.2559    1.3124 C.3     1  LIG  -0.0932   0.0000 
2     C2       6.3595   -8.0320    0.8814 C.3     1  LIG   0.0677   0.3435 
3     C3       7.1786   -7.2652   -0.1798 C.3     1  LIG  -0.0889   0.0000 
4     C4       5.1194   -8.5555    0.2497 C.1     1  LIG   0.2091   0.3571 
5     N1       4.1541   -8.9654   -0.2478 N.1     1  LIG  -0.3588  -0.5571 
6     C5       6.0014   -7.0787    2.0332 C.ar    1  LIG  -0.0796  -0.1435 
7     C6       6.4543   -7.2696    3.3455 C.ar    1  LIG  -0.0823  -0.1500 
8     C7       6.1116   -6.3793    4.3742 C.ar    1  LIG  -0.1246  -0.1435 
9     C8       5.2918   -5.2769    4.0903 C.ar    1  LIG  -0.0969  -0.1500 
10    C9       4.8121   -5.0384    2.7952 C.ar    1  LIG  -0.0804  -0.1435 
11    C10      5.1837   -5.9542    1.7863 C.ar    1  LIG  -0.0941  -0.1500 
12    C11      3.9162   -3.8385    2.4460 C.3     1  LIG   0.0683   0.3435 
13    C12      3.5348   -2.9610    3.6597 C.3     1  LIG  -0.0919   0.0000 
14    C13      4.6507   -2.9294    1.4364 C.3     1  LIG  -0.0889   0.0000 
15    C14      2.6461   -4.3125    1.8351 C.1     1  LIG   0.2078   0.3571 
16    N2       1.6536   -4.6777    1.3568 N.1     1  LIG  -0.3566  -0.5571 
17    C15      6.5950   -6.6243    5.7795 C.3     1  LIG   0.1049   0.3991 
18    N3       5.6984   -7.5126    6.4892 N.pl3   1  LIG  -0.0606   0.3140 
19    C16      4.6297   -7.1755    7.2617 C.2     1  LIG   0.4049   0.0365 
20    N4       4.0807   -8.2633    7.7519 N.2     1  LIG  -0.6799  -0.5653 
21    C17      4.8740   -9.2521    7.2434 C.2     1  LIG   0.5056   0.3660 
22    N5       5.8830   -8.8455    6.4695 N.2     1  LIG  -0.5212  -0.7068 
23    H1       6.6738   -9.8654    2.0582 H       1  LIG   0.0572   0.0000 
24    H2       7.4102   -9.9133    0.4593 H       1  LIG   0.0521   0.0000 
25    H3       8.1650   -8.9560    1.7355 H       1  LIG   0.0474   0.0000 
26    H4       6.6132   -6.4380   -0.6251 H       1  LIG   0.0471   0.0000 
27    H5       8.0926   -6.8431    0.2550 H       1  LIG   0.0499   0.0000 
28    H6       7.4746   -7.9233   -1.0062 H       1  LIG   0.0512   0.0000 
29    H7       7.0836   -8.1187    3.5993 H       1  LIG   0.1524   0.1500 
30    H8       5.0375   -4.6085    4.9086 H       1  LIG   0.1361   0.1500 
31    H9       4.8167   -5.7900    0.7734 H       1  LIG   0.1474   0.1500 
32    H10      2.8807   -2.1320    3.3607 H       1  LIG   0.0535   0.0000 
33    H11      2.9897   -3.5349    4.4194 H       1  LIG   0.0512   0.0000 
34    H12      4.4189   -2.5195    4.1344 H       1  LIG   0.0458   0.0000 
35    H13      4.0495   -2.0468    1.1849 H       1  LIG   0.0510   0.0000 
36    H14      5.6064   -2.5777    1.8432 H       1  LIG   0.0499   0.0000 
37    H15      4.8639   -3.4428    0.4914 H       1  LIG   0.0486   0.0000 
38    H16      7.5960   -7.0715    5.7823 H       1  LIG   0.0851   0.0000 
39    H17      6.6610   -5.6875    6.3451 H       1  LIG   0.0636   0.0000 
40    H18      4.3043   -6.1581    7.4269 H       1  LIG   0.0678   0.1500 
41    H19      4.7127  -10.3010    7.4448 H       1  LIG   0.0728   0.1500 
@<TRIPOS>BOND
1     1     2     1
2     1     23    1
3     1     24    1
4     1     25    1
5     2     3     1
6     2     4     1
7     2     6     1
8     3     26    1
9     3     27    1
10    3     28    1
11    4     5     3
12    6     11    ar
13    6     7     ar
14    7     8     ar
15    7     29    1
16    8     9     ar
17    8     17    1
18    9     10    ar
19    9     30    1
20    10    11    ar
21    10    12    1
22    11    31    1
23    12    13    1
24    12    14    1
25    12    15    1
26    13    32    1
27    13    33    1
28    13    34    1
29    14    35    1
30    14    36    1
31    14    37    1
32    15    16    3
33    17    18    1
34    17    38    1
35    17    39    1
36    18    22    1
37    18    19    1
38    19    20    2
39    19    40    1
40    20    21    1
41    21    22    2
42    21    41    1
@<TRIPOS>SUBSTRUCTURE
1   LIG    1    
 
########## Number      : 159
########## Name        : ZINC00000946
########## Description : AM1BCC_CHARGES =   0.0001 ORIGINAL_CHARGES =   0.0000

@<TRIPOS>MOLECULE
ZINC00000946
46    49    1     0     0    
SMALL
USER_CHARGES
****
****
@<TRIPOS>ATOM
1     C1       4.5858   -6.9346    0.0611 C.3     1  LIG  -0.0860   0.0000 
2     C2       3.4365   -7.3232    1.0116 C.3     1  LIG  -0.1470   0.0610 
3     C3       3.7766   -8.5841    1.8332 C.3     1  LIG  -0.1678   0.0610 
4     C4       4.4070   -8.2453    3.1931 C.2     1  LIG   0.5771   0.4480 
5     O1       4.3446   -9.0438    4.1233 O.2     1  LIG  -0.5293  -0.5700 
6     C5       5.1507   -6.9074    3.2349 C.3     1  LIG  -0.1547   0.0610 
7     C6       4.1052   -5.7818    2.9981 C.3     1  LIG  -0.0382   0.0000 
8     C7       3.0082   -6.2411    2.0206 C.3     1  LIG  -0.0669   0.0000 
9     C8       2.2591   -5.2293    1.1538 C.3     1  LIG  -0.0708   0.0000 
10    C9       1.3872   -6.1409    0.2582 C.3     1  LIG  -0.1877   0.0610 
11    C10      2.1838   -7.4416    0.1891 C.2     1  LIG   0.5741   0.4480 
12    O2       1.8546   -8.4186   -0.4674 O.2     1  LIG  -0.5105  -0.5700 
13    C11      4.8619   -4.4862    2.6875 C.3     1  LIG  -0.0721   0.0000 
14    C12      5.7970   -4.1310    3.8592 C.3     1  LIG  -0.0750   0.0000 
15    C13      6.7593   -5.2857    4.2251 C.3     1  LIG  -0.0564   0.0000 
16    C14      5.9866   -6.6267    4.5211 C.3     1  LIG  -0.0108   0.1382 
17    C15      7.0335   -7.7013    4.7591 C.2     1  LIG  -0.0912  -0.2882 
18    C16      8.2465   -7.4535    5.2733 C.2     1  LIG  -0.2555  -0.1356 
19    C17      8.6342   -6.0747    5.6702 C.2     1  LIG   0.5645   0.4946 
20    O3       9.7066   -5.8874    6.2424 O.2     1  LIG  -0.5323  -0.5700 
21    C18      7.6693   -4.9374    5.3991 C.3     1  LIG  -0.1785   0.0610 
22    C19      5.0940   -6.5407    5.7863 C.3     1  LIG  -0.0901   0.0000 
23    H1       4.3033   -6.1001   -0.5911 H       1  LIG   0.0424   0.0000 
24    H2       5.5190   -6.6528    0.5411 H       1  LIG   0.0453   0.0000 
25    H3       4.8129   -7.7731   -0.6093 H       1  LIG   0.0515   0.0000 
26    H4       2.8653   -9.1600    2.0367 H       1  LIG   0.0890   0.0000 
27    H5       4.4678   -9.2380    1.2903 H       1  LIG   0.0832   0.0000 
28    H6       5.8725   -6.9049    2.4019 H       1  LIG   0.0744   0.0000 
29    H7       3.5429   -5.5392    3.9168 H       1  LIG   0.0617   0.0000 
30    H8       2.2182   -6.6211    2.7045 H       1  LIG   0.0529   0.0000 
31    H9       1.6435   -4.5442    1.7448 H       1  LIG   0.0555   0.0000 
32    H10      2.9409   -4.6295    0.5416 H       1  LIG   0.0520   0.0000 
33    H11      0.4219   -6.3443    0.7307 H       1  LIG   0.0792   0.0000 
34    H12      1.2522   -5.7113   -0.7368 H       1  LIG   0.0787   0.0000 
35    H13      5.4440   -4.5851    1.7645 H       1  LIG   0.0454   0.0000 
36    H14      4.1589   -3.6592    2.5367 H       1  LIG   0.0485   0.0000 
37    H15      6.3831   -3.2459    3.5822 H       1  LIG   0.0486   0.0000 
38    H16      5.2003   -3.8384    4.7309 H       1  LIG   0.0470   0.0000 
39    H17      7.3950   -5.3992    3.3241 H       1  LIG   0.0523   0.0000 
40    H18      6.7882   -8.7356    4.5353 H       1  LIG   0.1495   0.1500 
41    H19      8.9623   -8.2480    5.4488 H       1  LIG   0.1518   0.1500 
42    H20      8.2619   -4.0506    5.1448 H       1  LIG   0.0743   0.0000 
43    H21      7.1105   -4.7170    6.3137 H       1  LIG   0.0760   0.0000 
44    H22      5.6977   -6.5046    6.7013 H       1  LIG   0.0449   0.0000 
45    H23      4.4602   -5.6512    5.8055 H       1  LIG   0.0376   0.0000 
46    H24      4.4383   -7.4092    5.8935 H       1  LIG   0.0635   0.0000 
@<TRIPOS>BOND
1     1     2     1
2     1     23    1
3     1     24    1
4     1     25    1
5     2     8     1
6     2     11    1
7     2     3     1
8     3     4     1
9     3     26    1
10    3     27    1
11    4     5     2
12    4     6     1
13    6     16    1
14    6     7     1
15    6     28    1
16    7     8     1
17    7     13    1
18    7     29    1
19    8     9     1
20    8     30    1
21    9     10    1
22    9     31    1
23    9     32    1
24    10    11    1
25    10    33    1
26    10    34    1
27    11    12    2
28    13    14    1
29    13    35    1
30    13    36    1
31    14    15    1
32    14    37    1
33    14    38    1
34    15    21    1
35    15    16    1
36    15    39    1
37    16    17    1
38    16    22    1
39    17    18    2
40    17    40    1
41    18    19    1
42    18    41    1
43    19    20    2
44    19    21    1
45    21    42    1
46    21    43    1
47    22    44    1
48    22    45    1
49    22    46    1
@<TRIPOS>SUBSTRUCTURE
1   LIG    1    
 
########## Number      : 160
########## Name        : ZINC00000947
########## Description : AM1BCC_CHARGES =  -0.0000 ORIGINAL_CHARGES =   0.0000

@<TRIPOS>MOLECULE
ZINC00000947
57    60    1     0     0    
SMALL
USER_CHARGES
****
****
@<TRIPOS>ATOM
1     C1       0.4487   -4.9209   -7.9574 C.3     1  LIG  -0.0900   0.0000 
2     C2       0.0322   -4.2996   -6.6322 C.3     1  LIG  -0.1637   0.0610 
3     C3       1.0957   -3.3765   -6.0799 C.2     1  LIG   0.6240   0.6590 
4     O1       2.1975   -3.2427   -6.6061 O.2     1  LIG  -0.4919  -0.5700 
5     O2       0.7882   -2.7003   -4.9431 O.3     1  LIG  -0.4188  -0.4300 
6     C4      -0.5030   -2.7386   -4.2878 C.3     1  LIG   0.1422   0.2800 
7     C5      -1.4211   -1.6634   -4.9406 C.3     1  LIG  -0.1068   0.0000 
8     C6      -1.3714   -0.4084   -4.0316 C.3     1  LIG  -0.0687   0.0000 
9     C7      -0.2559   -0.7217   -3.0347 C.3     1  LIG  -0.0668   0.0000 
10    C8      -0.3535   -2.2348   -2.8499 C.3     1  LIG  -0.0460   0.0000 
11    C9       0.9221   -2.6958   -2.1221 C.3     1  LIG  -0.0644   0.0000 
12    C10      1.1161   -1.9611   -0.7795 C.3     1  LIG  -0.0747   0.0000 
13    C11      1.0550   -0.4073   -0.9255 C.3     1  LIG  -0.0479   0.0000 
14    C12     -0.2308    0.0244   -1.6961 C.3     1  LIG  -0.0458   0.0000 
15    C13     -0.2546    1.5472   -1.9202 C.3     1  LIG  -0.0751   0.0000 
16    C14     -0.0959    2.3177   -0.6142 C.3     1  LIG  -0.0731   0.0000 
17    C15      1.1756    1.8787    0.1260 C.3     1  LIG  -0.0545   0.0000 
18    C16      1.1413    0.3470    0.4660 C.3     1  LIG  -0.0199   0.1382 
19    C17      2.4324    0.0079    1.1942 C.2     1  LIG  -0.0904  -0.2882 
20    C18      3.1464    0.8833    1.9149 C.2     1  LIG  -0.2559  -0.1356 
21    C19      2.6811    2.2814    2.0793 C.2     1  LIG   0.5661   0.4946 
22    O3       3.3098    3.0500    2.8045 O.2     1  LIG  -0.5348  -0.5700 
23    C20      1.4032    2.7046    1.3898 C.3     1  LIG  -0.1789   0.0610 
24    C21     -0.0275   -0.0373    1.4092 C.3     1  LIG  -0.0845   0.0000 
25    C22     -1.5871   -2.6917   -2.0261 C.3     1  LIG  -0.0898   0.0000 
26    H1      -0.3416   -5.5772   -8.3348 H       1  LIG   0.0405   0.0000 
27    H2       0.6418   -4.1492   -8.7101 H       1  LIG   0.0500   0.0000 
28    H3       1.3612   -5.5158   -7.8443 H       1  LIG   0.0578   0.0000 
29    H4      -0.8906   -3.7367   -6.7966 H       1  LIG   0.0686   0.0000 
30    H5      -0.1438   -5.1043   -5.9118 H       1  LIG   0.0711   0.0000 
31    H6      -0.9456   -3.7389   -4.3711 H       1  LIG   0.0498   0.0000 
32    H7      -1.0961   -1.4088   -5.9548 H       1  LIG   0.0579   0.0000 
33    H8      -2.4544   -2.0240   -4.9945 H       1  LIG   0.0466   0.0000 
34    H9      -1.1629    0.4946   -4.6145 H       1  LIG   0.0505   0.0000 
35    H10     -2.3343   -0.2658   -3.5285 H       1  LIG   0.0431   0.0000 
36    H11      0.6734   -0.4146   -3.5514 H       1  LIG   0.0685   0.0000 
37    H12      0.8947   -3.7782   -1.9474 H       1  LIG   0.0416   0.0000 
38    H13      1.8112   -2.5040   -2.7355 H       1  LIG   0.0699   0.0000 
39    H14      0.3692   -2.3191   -0.0664 H       1  LIG   0.0411   0.0000 
40    H15      2.0902   -2.2678   -0.3850 H       1  LIG   0.0406   0.0000 
41    H16      1.9469   -0.1629   -1.5358 H       1  LIG   0.0559   0.0000 
42    H17     -1.1316   -0.1901   -1.1048 H       1  LIG   0.0530   0.0000 
43    H18      0.5503    1.8360   -2.6083 H       1  LIG   0.0458   0.0000 
44    H19     -1.1970    1.8459   -2.3940 H       1  LIG   0.0432   0.0000 
45    H20     -0.0366    3.3890   -0.8433 H       1  LIG   0.0453   0.0000 
46    H21     -0.9849    2.1889    0.0131 H       1  LIG   0.0440   0.0000 
47    H22      2.0044    2.0939   -0.5780 H       1  LIG   0.0571   0.0000 
48    H23      2.7907   -1.0166    1.1769 H       1  LIG   0.1333   0.1500 
49    H24      4.0519    0.5888    2.4323 H       1  LIG   0.1489   0.1500 
50    H25      1.5105    3.7604    1.1128 H       1  LIG   0.0742   0.0000 
51    H26      0.5733    2.6311    2.0991 H       1  LIG   0.0731   0.0000 
52    H27      0.0313    0.4945    2.3655 H       1  LIG   0.0400   0.0000 
53    H28     -1.0115    0.1793    0.9883 H       1  LIG   0.0431   0.0000 
54    H29     -0.0083   -1.1026    1.6627 H       1  LIG   0.0395   0.0000 
55    H30     -1.5982   -2.3060   -1.0041 H       1  LIG   0.0457   0.0000 
56    H31     -2.5309   -2.3872   -2.4901 H       1  LIG   0.0357   0.0000 
57    H32     -1.6071   -3.7859   -1.9549 H       1  LIG   0.0347   0.0000 
@<TRIPOS>BOND
1     1     2     1
2     1     26    1
3     1     27    1
4     1     28    1
5     2     3     1
6     2     29    1
7     2     30    1
8     3     4     2
9     3     5     1
10    5     6     1
11    6     10    1
12    6     7     1
13    6     31    1
14    7     8     1
15    7     32    1
16    7     33    1
17    8     9     1
18    8     34    1
19    8     35    1
20    9     14    1
21    9     10    1
22    9     36    1
23    10    11    1
24    10    25    1
25    11    12    1
26    11    37    1
27    11    38    1
28    12    13    1
29    12    39    1
30    12    40    1
31    13    18    1
32    13    14    1
33    13    41    1
34    14    15    1
35    14    42    1
36    15    16    1
37    15    43    1
38    15    44    1
39    16    17    1
40    16    45    1
41    16    46    1
42    17    23    1
43    17    18    1
44    17    47    1
45    18    19    1
46    18    24    1
47    19    20    2
48    19    48    1
49    20    21    1
50    20    49    1
51    21    22    2
52    21    23    1
53    23    50    1
54    23    51    1
55    24    52    1
56    24    53    1
57    24    54    1
58    25    55    1
59    25    56    1
60    25    57    1
@<TRIPOS>SUBSTRUCTURE
1   LIG    1    
 
########## Number      : 161
########## Name        : ZINC00000948
########## Description : AM1BCC_CHARGES =  -0.0001 ORIGINAL_CHARGES =   0.0000

@<TRIPOS>MOLECULE
ZINC00000948
51    54    1     0     0    
SMALL
USER_CHARGES
****
****
@<TRIPOS>ATOM
1     C1       2.8268    7.5429    5.6689 C.3     1  LIG  -0.0858   0.0000 
2     C2       1.5139    8.3469    5.8571 C.3     1  LIG  -0.0342   0.0000 
3     C3       1.3112    9.2354    4.5865 C.3     1  LIG  -0.0707   0.0000 
4     C4       0.3396    8.6626    3.5486 C.3     1  LIG  -0.1077   0.0000 
5     C5       0.3879    7.1389    3.4497 C.3     1  LIG   0.1415   0.2800 
6     C6       0.1389    6.4648    4.8059 C.3     1  LIG  -0.1051   0.0000 
7     C7       0.2492    7.4225    6.0004 C.3     1  LIG  -0.0545   0.0000 
8     C8       0.2412    6.6414    7.3402 C.3     1  LIG  -0.0737   0.0000 
9     C9       0.4392    7.5396    8.5737 C.3     1  LIG  -0.0705   0.0000 
10    C10      1.7224    8.3547    8.3898 C.3     1  LIG  -0.0461   0.0000 
11    C11      1.5668    9.2437    7.1373 C.3     1  LIG  -0.0556   0.0000 
12    C12      2.6755   10.3184    7.1503 C.3     1  LIG  -0.0721   0.0000 
13    C13      2.4597   11.3033    8.3331 C.3     1  LIG  -0.0602   0.0000 
14    C14      1.7385   10.6807    9.5537 C.3     1  LIG  -0.1459   0.0610 
15    C15      2.1447    9.1976    9.6095 C.3     1  LIG  -0.0570   0.0000 
16    C16      1.7812    8.7899   11.0372 C.3     1  LIG  -0.0726   0.0000 
17    C17      2.3075    9.9870   11.8666 C.3     1  LIG  -0.1888   0.0610 
18    C18      2.2452   11.1568   10.8863 C.2     1  LIG   0.5730   0.4480 
19    O1       2.5370   12.3098   11.1679 O.2     1  LIG  -0.5204  -0.5700 
20    C19      0.2196   10.9519    9.5124 C.3     1  LIG  -0.0827   0.0000 
21    O2      -0.5972    6.7014    2.5274 O.3     1  LIG  -0.5984  -0.6800 
22    H1      -1.4662    6.9959    2.8496 H       1  LIG   0.3950   0.4000 
23    H2       2.9521    6.7478    6.4076 H       1  LIG   0.0369   0.0000 
24    H3       2.8747    7.0572    4.6903 H       1  LIG   0.0361   0.0000 
25    H4       3.7055    8.1930    5.7254 H       1  LIG   0.0369   0.0000 
26    H5       0.9245   10.2239    4.8654 H       1  LIG   0.0435   0.0000 
27    H6       2.2789    9.4254    4.1043 H       1  LIG   0.0446   0.0000 
28    H7      -0.6833    8.9776    3.7968 H       1  LIG   0.0374   0.0000 
29    H8       0.5388    9.1092    2.5664 H       1  LIG   0.0538   0.0000 
30    H9       1.3872    6.8653    3.0800 H       1  LIG   0.0755   0.0000 
31    H10     -0.8530    5.9941    4.8255 H       1  LIG   0.0468   0.0000 
32    H11      0.8473    5.6332    4.9142 H       1  LIG   0.0516   0.0000 
33    H12     -0.6654    8.0442    6.0480 H       1  LIG   0.0454   0.0000 
34    H13     -0.7133    6.1100    7.4419 H       1  LIG   0.0404   0.0000 
35    H14      1.0193    5.8682    7.3299 H       1  LIG   0.0421   0.0000 
36    H15     -0.4331    8.1883    8.7042 H       1  LIG   0.0428   0.0000 
37    H16      0.5074    6.9014    9.4617 H       1  LIG   0.0418   0.0000 
38    H17      2.4981    7.5830    8.2465 H       1  LIG   0.0507   0.0000 
39    H18      0.6393    9.8328    7.1658 H       1  LIG   0.0502   0.0000 
40    H19      3.6609    9.8493    7.2576 H       1  LIG   0.0414   0.0000 
41    H20      2.7019   10.8932    6.2191 H       1  LIG   0.0457   0.0000 
42    H21      3.4397   11.7031    8.6242 H       1  LIG   0.0549   0.0000 
43    H22      1.8889   12.1677    7.9703 H       1  LIG   0.0483   0.0000 
44    H23      3.2500    9.0817    9.5944 H       1  LIG   0.0472   0.0000 
45    H24      0.7005    8.6772   11.1721 H       1  LIG   0.0498   0.0000 
46    H25      2.2598    7.8539   11.3414 H       1  LIG   0.0507   0.0000 
47    H26      1.6785   10.1741   12.7396 H       1  LIG   0.0746   0.0000 
48    H27      3.3491    9.8297   12.1612 H       1  LIG   0.0744   0.0000 
49    H28     -0.3182   10.4988    8.6835 H       1  LIG   0.0468   0.0000 
50    H29     -0.2752   10.6122   10.4298 H       1  LIG   0.0359   0.0000 
51    H30      0.0361   12.0325    9.4597 H       1  LIG   0.0462   0.0000 
@<TRIPOS>BOND
1     1     2     1
2     1     23    1
3     1     24    1
4     1     25    1
5     2     7     1
6     2     11    1
7     2     3     1
8     3     4     1
9     3     26    1
10    3     27    1
11    4     5     1
12    4     28    1
13    4     29    1
14    5     6     1
15    5     21    1
16    5     30    1
17    6     7     1
18    6     31    1
19    6     32    1
20    7     8     1
21    7     33    1
22    8     9     1
23    8     34    1
24    8     35    1
25    9     10    1
26    9     36    1
27    9     37    1
28    10    15    1
29    10    11    1
30    10    38    1
31    11    12    1
32    11    39    1
33    12    13    1
34    12    40    1
35    12    41    1
36    13    14    1
37    13    42    1
38    13    43    1
39    14    18    1
40    14    15    1
41    14    20    1
42    15    16    1
43    15    44    1
44    16    17    1
45    16    45    1
46    16    46    1
47    17    18    1
48    17    47    1
49    17    48    1
50    18    19    2
51    20    49    1
52    20    50    1
53    20    51    1
54    21    22    1
@<TRIPOS>SUBSTRUCTURE
1   LIG    1    
 
########## Number      : 162
########## Name        : ZINC00000950
########## Description : AM1BCC_CHARGES =   0.0003 ORIGINAL_CHARGES =   0.0000

@<TRIPOS>MOLECULE
ZINC00000950
34    35    1     0     0    
SMALL
USER_CHARGES
****
****
@<TRIPOS>ATOM
1     C1       6.9738   -9.2944    0.3512 C.3     1  LIG   0.0716   0.3001 
2     N1       6.5748   -7.9152    0.2056 N.am    1  LIG  -0.5175  -0.7301 
3     C2       5.3950   -7.4093    0.7045 C.2     1  LIG   0.7436   0.7800 
4     O1       4.5459   -8.0505    1.3148 O.2     1  LIG  -0.5572  -0.5700 
5     O2       5.3177   -6.0498    0.4118 O.3     1  LIG  -0.3732  -0.2325 
6     C3       4.1481   -5.4291    0.8687 C.ar    1  LIG   0.1748   0.0825 
7     C4       2.9664   -5.6118    0.1455 C.ar    1  LIG  -0.1356  -0.1500 
8     C5       1.8047   -4.9593    0.5542 C.ar    1  LIG  -0.0939  -0.1500 
9     C6       1.8284   -4.1215    1.6705 C.ar    1  LIG  -0.1439  -0.1500 
10    C7       3.0160   -3.9241    2.3796 C.ar    1  LIG  -0.0975  -0.1500 
11    C8       4.1900   -4.5692    1.9723 C.ar    1  LIG  -0.1545   0.0862 
12    C9       5.4504   -4.3587    2.7272 C.2     1  LIG   0.6938   0.5438 
13    O3       6.1158   -5.3415    3.0306 O.2     1  LIG  -0.5766  -0.5700 
14    N2       5.7305   -3.0262    2.9917 N.am    1  LIG  -0.4704  -0.5470 
15    C10      6.8359   -2.5086    3.7077 C.ar    1  LIG   0.0721   0.1170 
16    C11      7.8282   -3.2952    4.3005 C.ar    1  LIG  -0.1575  -0.1500 
17    C12      8.8860   -2.6952    4.9917 C.ar    1  LIG  -0.1045  -0.1500 
18    C13      8.9620   -1.3086    5.0978 C.ar    1  LIG  -0.1590  -0.1500 
19    C14      7.9786   -0.5165    4.5129 C.ar    1  LIG  -0.1027  -0.1500 
20    C15      6.9215   -1.1130    3.8223 C.ar    1  LIG  -0.1868  -0.1500 
21    H1       7.2067   -7.2730   -0.2607 H       1  LIG   0.3216   0.3700 
22    H2       5.0910   -2.3273    2.6223 H       1  LIG   0.3181   0.3700 
23    H3       7.7531   -9.3453    1.1156 H       1  LIG   0.0305   0.0000 
24    H4       6.1283   -9.9213    0.6444 H       1  LIG   0.0766   0.0000 
25    H5       7.3788   -9.6373   -0.6038 H       1  LIG   0.0491   0.0000 
26    H6       2.9458   -6.2565   -0.7284 H       1  LIG   0.1618   0.1500 
27    H7       0.8794   -5.1026    0.0034 H       1  LIG   0.1419   0.1500 
28    H8       0.9185   -3.6201    1.9891 H       1  LIG   0.1399   0.1500 
29    H9       3.0046   -3.2753    3.2516 H       1  LIG   0.1404   0.1500 
30    H10      7.8151   -4.3779    4.2510 H       1  LIG   0.1713   0.1500 
31    H11      9.6521   -3.3157    5.4489 H       1  LIG   0.1335   0.1500 
32    H12      9.7852   -0.8476    5.6356 H       1  LIG   0.1324   0.1500 
33    H13      8.0327    0.5654    4.5932 H       1  LIG   0.1308   0.1500 
34    H14      6.1654   -0.4722    3.3741 H       1  LIG   0.1273   0.1500 
@<TRIPOS>BOND
1     1     2     1
2     1     23    1
3     1     24    1
4     1     25    1
5     2     3     am
6     2     21    1
7     3     4     2
8     3     5     1
9     5     6     1
10    6     11    ar
11    6     7     ar
12    7     8     ar
13    7     26    1
14    8     9     ar
15    8     27    1
16    9     10    ar
17    9     28    1
18    10    11    ar
19    10    29    1
20    11    12    1
21    12    13    2
22    12    14    am
23    14    15    1
24    14    22    1
25    15    20    ar
26    15    16    ar
27    16    17    ar
28    16    30    1
29    17    18    ar
30    17    31    1
31    18    19    ar
32    18    32    1
33    19    20    ar
34    19    33    1
35    20    34    1
@<TRIPOS>SUBSTRUCTURE
1   LIG    1    
 
########## Number      : 163
########## Name        : ZINC00000951
########## Description : AM1BCC_CHARGES =  -0.0002 ORIGINAL_CHARGES =   0.0000

@<TRIPOS>MOLECULE
ZINC00000951
26    26    1     0     0    
SMALL
USER_CHARGES
****
****
@<TRIPOS>ATOM
1     C1       3.5964   -8.3878    1.2159 C.ar    1  LIG  -0.1459  -0.1500 
2     C2       2.5094   -7.8350    1.8825 C.ar    1  LIG  -0.1096  -0.1500 
3     C3       1.7913   -6.7821    1.3047 C.ar    1  LIG  -0.1734  -0.1500 
4     C4       2.1341   -6.2552    0.0448 C.ar    1  LIG   0.1172   0.1000 
5     C5       3.2432   -6.8341   -0.6013 C.ar    1  LIG  -0.1409  -0.1500 
6     C6       3.9649   -7.8858   -0.0264 C.ar    1  LIG  -0.1129  -0.1500 
7     N1       1.4206   -5.2014   -0.5469 N.pl3   1  LIG  -0.6401  -0.8382 
8     C7       1.0069   -5.3693   -1.9505 C.3     1  LIG   0.1759   0.3691 
9     C8      -0.2354   -6.2500   -2.0552 C.3     1  LIG  -0.0056   0.2900 
10    Cl1     -0.7328   -6.4236   -3.7547 Cl      1  LIG  -0.1834  -0.2900 
11    C9       0.6754   -4.2768    0.3248 C.3     1  LIG   0.1721   0.3691 
12    C10      0.5222   -2.8869   -0.2862 C.3     1  LIG   0.0285   0.2900 
13    Cl2     -0.1835   -1.7608    0.9004 Cl      1  LIG  -0.1871  -0.2900 
14    H1       4.1552   -9.2040    1.6637 H       1  LIG   0.1344   0.1500 
15    H2       2.2132   -8.2225    2.8533 H       1  LIG   0.1328   0.1500 
16    H3       0.9371   -6.3971    1.8567 H       1  LIG   0.1332   0.1500 
17    H4       3.5868   -6.4539   -1.5603 H       1  LIG   0.1393   0.1500 
18    H5       4.8189   -8.3055   -0.5506 H       1  LIG   0.1338   0.1500 
19    H6       0.8049   -4.3916   -2.4006 H       1  LIG   0.0640   0.0000 
20    H7       1.8134   -5.7887   -2.5620 H       1  LIG   0.0722   0.0000 
21    H8      -0.0502   -7.2537   -1.6607 H       1  LIG   0.0753   0.0000 
22    H9      -1.0786   -5.8181   -1.5079 H       1  LIG   0.0659   0.0000 
23    H10     -0.3102   -4.6980    0.5583 H       1  LIG   0.0303   0.0000 
24    H11      1.2155   -4.1547    1.2731 H       1  LIG   0.0761   0.0000 
25    H12      1.4889   -2.4807   -0.5991 H       1  LIG   0.0818   0.0000 
26    H13     -0.1492   -2.8950   -1.1487 H       1  LIG   0.0659   0.0000 
@<TRIPOS>BOND
1     1     6     ar
2     1     2     ar
3     1     14    1
4     2     3     ar
5     2     15    1
6     3     4     ar
7     3     16    1
8     4     5     ar
9     4     7     1
10    5     6     ar
11    5     17    1
12    6     18    1
13    7     8     1
14    7     11    1
15    8     9     1
16    8     19    1
17    8     20    1
18    9     10    1
19    9     21    1
20    9     22    1
21    11    12    1
22    11    23    1
23    11    24    1
24    12    13    1
25    12    25    1
26    12    26    1
@<TRIPOS>SUBSTRUCTURE
1   LIG    1    
 
########## Number      : 164
########## Name        : ZINC00000954
########## Description : AM1BCC_CHARGES =   1.0000 ORIGINAL_CHARGES =   1.0000

@<TRIPOS>MOLECULE
ZINC00000954
39    40    1     0     0    
SMALL
USER_CHARGES
****
****
@<TRIPOS>ATOM
1     C1       3.3477   -9.5447   -0.4452 C.3     1  LIG  -0.1505   0.0610 
2     C2       4.6381   -8.7924   -0.5587 C.2     1  LIG   0.6463   0.6590 
3     O1       5.4860   -9.0036   -1.4143 O.2     1  LIG  -0.5114  -0.5700 
4     O2       4.7117   -7.8577    0.4317 O.3     1  LIG  -0.4649  -0.4300 
5     C3       5.8966   -7.0388    0.4500 C.3     1  LIG   0.1038   0.2800 
6     C4       6.9994   -7.7780    1.1884 C.3     1  LIG   0.1186   0.2800 
7     C5       6.6322   -7.6105    2.6629 C.3     1  LIG   0.1041   0.5030 
8     C6       5.6757   -5.8087    1.3460 C.3     1  LIG   0.1376   0.5030 
9     C7       4.2796   -5.1785    1.2050 C.3     1  LIG  -0.0379   0.1435 
10    C8       4.1416   -3.8839    1.9699 C.ar    1  LIG  -0.2034  -0.1435 
11    C9       3.4343   -3.8398    3.1776 C.ar    1  LIG  -0.0968  -0.1500 
12    C10      3.3168   -2.6442    3.8945 C.ar    1  LIG  -0.2040  -0.1500 
13    C11      3.9068   -1.4749    3.4116 C.ar    1  LIG   0.1608   0.0825 
14    C12      4.6128   -1.5155    2.2058 C.ar    1  LIG  -0.1467  -0.1500 
15    C13      4.7300   -2.7085    1.4896 C.ar    1  LIG  -0.0885  -0.1500 
16    O3       3.8659   -0.2468    4.0157 O.3     1  LIG  -0.3103  -0.3625 
17    C14      3.1506   -0.1585    5.2423 C.3     1  LIG   0.1072   0.2800 
18    O4       8.2419   -7.1372    0.9362 O.3     1  LIG  -0.5928  -0.6800 
19    H1       8.4734   -7.3041    0.0055 H       1  LIG   0.4489   0.4000 
20    H2       3.2859  -10.2822   -1.2506 H       1  LIG   0.1027   0.0000 
21    H3       3.3081  -10.0696    0.5125 H       1  LIG   0.0863   0.0000 
22    H4       2.5061   -8.8540   -0.5413 H       1  LIG   0.0913   0.0000 
23    H5       6.1382   -6.7011   -0.5679 H       1  LIG   0.1276   0.0000 
24    H6       7.0836   -8.8477    0.9563 H       1  LIG   0.1060   0.0000 
25    H7       5.9222   -8.3722    2.9986 H       1  LIG   0.1113   0.0000 
26    H8       7.4921   -7.5478    3.3349 H       1  LIG   0.1307   0.0000 
27    H9       6.4295   -5.0467    1.0803 H       1  LIG   0.1200   0.0000 
28    H10      4.0741   -4.9751    0.1457 H       1  LIG   0.1030   0.0000 
29    H11      3.4994   -5.8792    1.5294 H       1  LIG   0.0832   0.0000 
30    H12      2.9641   -4.7369    3.5735 H       1  LIG   0.1287   0.1500 
31    H13      2.7575   -2.6625    4.8247 H       1  LIG   0.1550   0.1500 
32    H14      5.0772   -0.6131    1.8149 H       1  LIG   0.1710   0.1500 
33    H15      5.2832   -2.7111    0.5535 H       1  LIG   0.1396   0.1500 
34    H16      3.2101    0.8775    5.5896 H       1  LIG   0.0886   0.0000 
35    H17      2.0924   -0.4017    5.1007 H       1  LIG   0.0459   0.0000 
36    H18      3.6044   -0.7934    6.0104 H       1  LIG   0.0371   0.0000 
37    N1       5.8994   -6.2928    2.7342 N.4     1  LIG  -0.7624  -0.9060 
38    H19      5.0155   -6.4183    3.2461 H       1  LIG   0.4543   0.4500 
39    H20      6.4474   -5.6017    3.2653 H       1  LIG   0.4600   0.4500 
@<TRIPOS>BOND
1     1     2     1
2     1     20    1
3     1     21    1
4     1     22    1
5     2     3     2
6     2     4     1
7     4     5     1
8     5     8     1
9     5     6     1
10    5     23    1
11    6     7     1
12    6     18    1
13    6     24    1
14    7     25    1
15    7     26    1
16    7     37    1
17    8     9     1
18    8     27    1
19    8     37    1
20    9     10    1
21    9     28    1
22    9     29    1
23    10    15    ar
24    10    11    ar
25    11    12    ar
26    11    30    1
27    12    13    ar
28    12    31    1
29    13    14    ar
30    13    16    1
31    14    15    ar
32    14    32    1
33    15    33    1
34    16    17    1
35    17    34    1
36    17    35    1
37    17    36    1
38    18    19    1
39    37    38    1
40    37    39    1
@<TRIPOS>SUBSTRUCTURE
1   LIG    1    
 
########## Number      : 165
########## Name        : ZINC00000957
########## Description : AM1BCC_CHARGES =  -0.0002 ORIGINAL_CHARGES =   0.0000

@<TRIPOS>MOLECULE
ZINC00000957
40    42    1     0     0    
SMALL
USER_CHARGES
****
****
@<TRIPOS>ATOM
1     C1       5.2416    5.8299    9.8219 C.3     1  LIG  -0.1343   0.1435 
2     C2       4.2844    6.9024    9.4166 C.ar    1  LIG   0.5838   0.4765 
3     N1       3.3400    6.5918    8.5120 N.ar    1  LIG  -0.6589  -0.6200 
4     C3       2.4682    7.5715    8.1799 C.ar    1  LIG   0.4140   0.3100 
5     C4       2.5425    8.8245    8.7775 C.ar    1  LIG   0.2823   0.3100 
6     N2       3.5169    9.0756    9.6811 N.ar    1  LIG  -0.2674  -0.3100 
7     N3       4.4007    8.1040   10.0111 N.ar    1  LIG  -0.3407  -0.3100 
8     C5       1.6216    9.9422    8.5415 C.ar    1  LIG  -0.1792   0.0000 
9     C6       2.1084   11.1945    8.1333 C.ar    1  LIG  -0.0604  -0.1500 
10    C7       1.2435   12.2712    7.9035 C.ar    1  LIG  -0.2116  -0.1500 
11    C8      -0.1307   12.1179    8.0849 C.ar    1  LIG   0.1365   0.0825 
12    C9      -0.6265   10.8805    8.5020 C.ar    1  LIG  -0.1606  -0.1500 
13    C10      0.2382    9.8065    8.7316 C.ar    1  LIG  -0.0692  -0.1500 
14    O1      -1.0792   13.0866    7.8940 O.3     1  LIG  -0.3256  -0.3625 
15    C11     -0.6156   14.3624    7.4680 C.3     1  LIG   0.1126   0.2800 
16    C12      1.4974    7.1882    7.1454 C.ar    1  LIG  -0.1962   0.0000 
17    C13      1.3896    7.9002    5.9399 C.ar    1  LIG  -0.0584  -0.1500 
18    C14      0.4617    7.5307    4.9587 C.ar    1  LIG  -0.2094  -0.1500 
19    C15     -0.3743    6.4329    5.1613 C.ar    1  LIG   0.1411   0.0825 
20    C16     -0.2677    5.7086    6.3509 C.ar    1  LIG  -0.1645  -0.1500 
21    C17      0.6587    6.0788    7.3297 C.ar    1  LIG  -0.0613  -0.1500 
22    O2      -1.3198    5.9709    4.2855 O.3     1  LIG  -0.3244  -0.3625 
23    C18     -1.4660    6.6861    3.0642 C.3     1  LIG   0.1121   0.2800 
24    H1       5.4102    5.1312    8.9968 H       1  LIG   0.0666   0.0000 
25    H2       6.2061    6.2612   10.1070 H       1  LIG   0.0682   0.0000 
26    H3       4.8367    5.2771   10.6745 H       1  LIG   0.0640   0.0000 
27    H4       3.1761   11.3440    7.9811 H       1  LIG   0.1443   0.1500 
28    H5       1.6793   13.2128    7.5843 H       1  LIG   0.1405   0.1500 
29    H6      -1.6945   10.7436    8.6548 H       1  LIG   0.1529   0.1500 
30    H7      -0.1853    8.8623    9.0677 H       1  LIG   0.1424   0.1500 
31    H8      -1.4872   15.0154    7.3607 H       1  LIG   0.0680   0.0000 
32    H9       0.0466   14.8116    8.2155 H       1  LIG   0.0368   0.0000 
33    H10     -0.1256   14.2984    6.4908 H       1  LIG   0.0328   0.0000 
34    H11      2.0351    8.7545    5.7448 H       1  LIG   0.1420   0.1500 
35    H12      0.4231    8.1219    4.0491 H       1  LIG   0.1417   0.1500 
36    H13     -0.9083    4.8472    6.5251 H       1  LIG   0.1535   0.1500 
37    H14      0.7139    5.4935    8.2456 H       1  LIG   0.1458   0.1500 
38    H15     -2.2566    6.1993    2.4851 H       1  LIG   0.0689   0.0000 
39    H16     -1.7759    7.7203    3.2468 H       1  LIG   0.0357   0.0000 
40    H17     -0.5464    6.6461    2.4711 H       1  LIG   0.0354   0.0000 
@<TRIPOS>BOND
1     1     2     1
2     1     24    1
3     1     25    1
4     1     26    1
5     2     7     ar
6     2     3     ar
7     3     4     ar
8     4     5     ar
9     4     16    1
10    5     6     ar
11    5     8     1
12    6     7     ar
13    8     13    ar
14    8     9     ar
15    9     10    ar
16    9     27    1
17    10    11    ar
18    10    28    1
19    11    12    ar
20    11    14    1
21    12    13    ar
22    12    29    1
23    13    30    1
24    14    15    1
25    15    31    1
26    15    32    1
27    15    33    1
28    16    21    ar
29    16    17    ar
30    17    18    ar
31    17    34    1
32    18    19    ar
33    18    35    1
34    19    20    ar
35    19    22    1
36    20    21    ar
37    20    36    1
38    21    37    1
39    22    23    1
40    23    38    1
41    23    39    1
42    23    40    1
@<TRIPOS>SUBSTRUCTURE
1   LIG    1    
 
########## Number      : 166
########## Name        : ZINC00000959
########## Description : AM1BCC_CHARGES =  -0.0002 ORIGINAL_CHARGES =   0.0000

@<TRIPOS>MOLECULE
ZINC00000959
27    29    1     0     0    
SMALL
USER_CHARGES
****
****
@<TRIPOS>ATOM
1     C1       4.9197   -8.6222    0.7510 C.ar    1  LIG  -0.0556  -0.1500 
2     C2       4.3279   -7.6568    1.5628 C.ar    1  LIG  -0.1956  -0.1500 
3     C3       4.1289   -6.3448    1.0976 C.ar    1  LIG   0.0109  -0.1435 
4     C4       4.5331   -6.0094   -0.2007 C.ar    1  LIG  -0.2498   0.0862 
5     C5       5.1292   -6.9908   -1.0117 C.ar    1  LIG   0.2162   0.0825 
6     C6       5.3209   -8.2891   -0.5377 C.ar    1  LIG  -0.1900  -0.1500 
7     O1       5.5558   -6.7570   -2.2918 O.3     1  LIG  -0.5036  -0.5325 
8     C7       4.3217   -4.6242   -0.6884 C.2     1  LIG   0.6295   0.3976 
9     O2       4.6717   -4.3188   -1.8236 O.2     1  LIG  -0.6288  -0.5700 
10    C8       3.6903   -3.6056    0.1862 C.ar    1  LIG  -0.2498   0.0862 
11    C9       3.2954   -3.9677    1.4802 C.ar    1  LIG   0.0109  -0.1435 
12    C10      2.6967   -3.0045    2.3116 C.ar    1  LIG  -0.1956  -0.1500 
13    C11      2.4928   -1.7006    1.8651 C.ar    1  LIG  -0.0555  -0.1500 
14    C12      2.8849   -1.3414    0.5806 C.ar    1  LIG  -0.1900  -0.1500 
15    C13      3.4801   -2.2874   -0.2546 C.ar    1  LIG   0.2162   0.0825 
16    O3       3.8323   -1.8415   -1.5006 O.3     1  LIG  -0.5035  -0.5325 
17    C14      3.4847   -5.3548    2.0269 C.3     1  LIG  -0.0158   0.2870 
18    H1       5.3747   -5.8274   -2.5175 H       1  LIG   0.4631   0.4500 
19    H2       4.2352   -2.5776   -1.9944 H       1  LIG   0.4631   0.4500 
20    H3       5.0670   -9.6316    1.1239 H       1  LIG   0.1391   0.1500 
21    H4       4.0189   -7.9317    2.5691 H       1  LIG   0.1372   0.1500 
22    H5       5.7824   -9.0427   -1.1701 H       1  LIG   0.1570   0.1500 
23    H6       2.3849   -3.2715    3.3193 H       1  LIG   0.1372   0.1500 
24    H7       2.0291   -0.9673    2.5185 H       1  LIG   0.1391   0.1500 
25    H8       2.7254   -0.3241    0.2332 H       1  LIG   0.1570   0.1500 
26    H9       2.4992   -5.7461    2.3115 H       1  LIG   0.0783   0.0000 
27    H10      4.1038   -5.2832    2.9306 H       1  LIG   0.0786   0.0000 
@<TRIPOS>BOND
1     1     6     ar
2     1     2     ar
3     1     20    1
4     2     3     ar
5     2     21    1
6     3     17    1
7     3     4     ar
8     4     5     ar
9     4     8     1
10    5     6     ar
11    5     7     1
12    6     22    1
13    7     18    1
14    8     9     2
15    8     10    1
16    10    15    ar
17    10    11    ar
18    11    12    ar
19    11    17    1
20    12    13    ar
21    12    23    1
22    13    14    ar
23    13    24    1
24    14    15    ar
25    14    25    1
26    15    16    1
27    16    19    1
28    17    26    1
29    17    27    1
@<TRIPOS>SUBSTRUCTURE
1   LIG    1    
 
########## Number      : 167
########## Name        : ZINC00000978
########## Description : AM1BCC_CHARGES =   1.0003 ORIGINAL_CHARGES =   1.0000

@<TRIPOS>MOLECULE
ZINC00000978
40    43    1     0     0    
SMALL
USER_CHARGES
****
****
@<TRIPOS>ATOM
1     C1       5.2462  -10.8097    3.8917 C.3     1  LIG   0.0840   0.5030 
2     C2       6.3670   -8.6010    3.8703 C.3     1  LIG   0.1138   0.5030 
3     C3       6.7728   -7.4261    2.9825 C.3     1  LIG  -0.0553   0.1382 
4     C4       5.5695   -6.7267    2.3566 C.2     1  LIG  -0.1956  -0.2764 
5     C5       5.2939   -5.3960    2.4638 C.2     1  LIG   0.0893  -0.0568 
6     C6       4.0317   -4.7846    1.9721 C.ar    1  LIG  -0.1893   0.0284 
7     C7       3.4952   -4.9303    0.6902 C.ar    1  LIG  -0.0973  -0.1500 
8     C8       2.2968   -4.2934    0.3563 C.ar    1  LIG  -0.1412  -0.1500 
9     C9       1.6440   -3.4841    1.2876 C.ar    1  LIG  -0.0833  -0.1500 
10    C10      2.2030   -3.2778    2.5472 C.ar    1  LIG  -0.1879  -0.1500 
11    C11      3.4079   -3.9005    2.8710 C.ar    1  LIG   0.3338   0.0825 
12    O1       3.9779   -3.5824    4.0924 O.3     1  LIG  -0.3696  -0.1650 
13    C12      5.3673   -3.6051    4.1302 C.ar    1  LIG   0.5877   0.3925 
14    C13      6.0946   -4.4693    3.3019 C.ar    1  LIG  -0.2333   0.0284 
15    C14      7.4776   -4.3007    3.2590 C.ar    1  LIG  -0.0586  -0.1500 
16    C15      8.0857   -3.3744    4.1016 C.ar    1  LIG  -0.2639  -0.1500 
17    C16      7.2787   -2.6237    4.9415 C.ar    1  LIG   0.4431   0.1600 
18    N1       5.9312   -2.7105    4.9727 N.ar    1  LIG  -0.6416  -0.6200 
19    C17      4.6871   -7.7508    1.6487 C.3     1  LIG  -0.0561   0.1382 
20    C18      4.3124   -8.9213    2.5556 C.3     1  LIG   0.1138   0.5030 
21    H1       4.6854  -11.5041    3.2606 H       1  LIG   0.1030   0.0000 
22    H2       6.1925  -11.2642    4.1965 H       1  LIG   0.1027   0.0000 
23    H3       4.6563  -10.5062    4.7608 H       1  LIG   0.1061   0.0000 
24    H4       5.7616   -8.2791    4.7261 H       1  LIG   0.1078   0.0000 
25    H5       7.2573   -9.1266    4.2321 H       1  LIG   0.0969   0.0000 
26    H6       7.3781   -6.7707    3.6080 H       1  LIG   0.1047   0.0000 
27    H7       7.4274   -7.7786    2.1750 H       1  LIG   0.0691   0.0000 
28    H8       3.9978   -5.5309   -0.0633 H       1  LIG   0.1372   0.1500 
29    H9       1.8738   -4.4241   -0.6362 H       1  LIG   0.1505   0.1500 
30    H10      0.7126   -2.9929    1.0202 H       1  LIG   0.1564   0.1500 
31    H11      1.7160   -2.6130    3.2547 H       1  LIG   0.1725   0.1500 
32    H12      8.0937   -4.8754    2.5730 H       1  LIG   0.1434   0.1500 
33    H13      9.1617   -3.2406    4.0977 H       1  LIG   0.1623   0.1500 
34    H14      7.7099   -1.8957    5.6214 H       1  LIG   0.0477   0.1500 
35    H15      3.7459   -7.3367    1.2887 H       1  LIG   0.1097   0.0000 
36    H16      5.2243   -8.1206    0.7658 H       1  LIG   0.0693   0.0000 
37    H17      3.7519   -9.6747    1.9918 H       1  LIG   0.0971   0.0000 
38    H18      3.7186   -8.5984    3.4190 H       1  LIG   0.1076   0.0000 
39    N2       5.5612   -9.5856    3.0672 N.4     1  LIG  -0.6824  -0.9590 
40    H19      6.1075   -9.9436    2.2649 H       1  LIG   0.4462   0.4500 
@<TRIPOS>BOND
1     1     21    1
2     1     22    1
3     1     23    1
4     1     39    1
5     2     3     1
6     2     24    1
7     2     25    1
8     2     39    1
9     3     4     1
10    3     26    1
11    3     27    1
12    4     5     2
13    4     19    1
14    5     14    1
15    5     6     1
16    6     11    ar
17    6     7     ar
18    7     8     ar
19    7     28    1
20    8     9     ar
21    8     29    1
22    9     10    ar
23    9     30    1
24    10    11    ar
25    10    31    1
26    11    12    1
27    12    13    1
28    13    18    ar
29    13    14    ar
30    14    15    ar
31    15    16    ar
32    15    32    1
33    16    17    ar
34    16    33    1
35    17    18    ar
36    17    34    1
37    19    20    1
38    19    35    1
39    19    36    1
40    20    37    1
41    20    38    1
42    20    39    1
43    39    40    1
@<TRIPOS>SUBSTRUCTURE
1   LIG    1    
 
########## Number      : 168
########## Name        : ZINC00000980
########## Description : AM1BCC_CHARGES =   0.0001 ORIGINAL_CHARGES =  -0.0000

@<TRIPOS>MOLECULE
ZINC00000980
22    22    1     0     0    
SMALL
USER_CHARGES
****
****
@<TRIPOS>ATOM
1     C1       4.2859   -9.5050    0.8149 C.3     1  LIG  -0.1797   0.0610 
2     C2       2.9943   -8.7604    0.6126 C.2     1  LIG   0.6188   0.5690 
3     O1       1.9160   -9.2141    0.9890 O.2     1  LIG  -0.5556  -0.5700 
4     N1       3.1729   -7.5352    0.0040 N.am    1  LIG  -0.3673  -0.4300 
5     N2       2.0696   -6.7409   -0.2356 N.am    1  LIG  -0.4553  -0.4300 
6     C3       2.2337   -5.5861   -0.9777 C.2     1  LIG   0.5717   0.5438 
7     O2       3.3114   -5.1996   -1.4255 O.2     1  LIG  -0.5733  -0.5700 
8     C4       1.0128   -4.7704   -1.2123 C.ar    1  LIG   0.3590   0.3962 
9     C5      -0.2736   -5.2899   -1.1135 C.ar    1  LIG  -0.2066  -0.1500 
10    C6      -1.3456   -4.4359   -1.3630 C.ar    1  LIG  -0.0950  -0.1500 
11    C7      -1.1106   -3.1093   -1.7035 C.ar    1  LIG  -0.2280  -0.1500 
12    C8       0.2040   -2.6858   -1.7868 C.ar    1  LIG   0.3934   0.1600 
13    N3       1.2698   -3.4829   -1.5533 N.ar    1  LIG  -0.6318  -0.6200 
14    H1       4.0766   -7.1737   -0.2873 H       1  LIG   0.3012   0.3700 
15    H2       1.1973   -7.0433    0.1856 H       1  LIG   0.3447   0.3700 
16    H3       4.0927  -10.5810    0.7879 H       1  LIG   0.0794   0.0000 
17    H4       5.0074   -9.2640    0.0289 H       1  LIG   0.0651   0.0000 
18    H5       4.7075   -9.2345    1.7865 H       1  LIG   0.0718   0.0000 
19    H6      -0.4731   -6.3269   -0.8706 H       1  LIG   0.1605   0.1500 
20    H7      -2.3641   -4.8080   -1.2964 H       1  LIG   0.1471   0.1500 
21    H8      -1.9311   -2.4293   -1.9023 H       1  LIG   0.1493   0.1500 
22    H9       0.4434   -1.6614   -2.0530 H       1  LIG   0.0307   0.1500 
@<TRIPOS>BOND
1     1     2     1
2     1     16    1
3     1     17    1
4     1     18    1
5     2     3     2
6     2     4     am
7     4     5     1
8     4     14    1
9     5     6     am
10    5     15    1
11    6     7     2
12    6     8     1
13    8     13    ar
14    8     9     ar
15    9     10    ar
16    9     19    1
17    10    11    ar
18    10    20    1
19    11    12    ar
20    11    21    1
21    12    13    ar
22    12    22    1
@<TRIPOS>SUBSTRUCTURE
1   LIG    1    
 
########## Number      : 169
########## Name        : ZINC00000984
########## Description : AM1BCC_CHARGES =   0.0001 ORIGINAL_CHARGES =  -0.0000

@<TRIPOS>MOLECULE
ZINC00000984
30    30    1     0     0    
SMALL
USER_CHARGES
****
****
@<TRIPOS>ATOM
1     C1       6.3705   -8.6084   -1.4616 C.3     1  LIG  -0.1125   0.0000 
2     C2       4.9857   -8.6318   -2.0898 C.3     1  LIG   0.0921   0.3001 
3     N1       4.0570   -7.7406   -1.3875 N.am    1  LIG  -0.4724  -0.6602 
4     C3       3.3212   -8.3229   -0.2570 C.3     1  LIG   0.0869   0.3001 
5     C4       2.0279   -8.9848   -0.7070 C.3     1  LIG  -0.1202   0.0000 
6     C5       3.9544   -6.4140   -1.8161 C.2     1  LIG   0.6716   0.5690 
7     O1       4.6382   -5.9496   -2.7354 O.2     1  LIG  -0.5917  -0.5700 
8     C6       2.9645   -5.5079   -1.1102 C.3     1  LIG  -0.1199   0.2910 
9     S1       3.8563   -4.5776    0.1767 S.3     1  LIG  -0.1864  -0.3315 
10    C7       2.5447   -3.5584    0.8350 C.ar    1  LIG   0.3976   0.4115 
11    C8       2.8379   -2.6516    1.8442 C.ar    1  LIG  -0.1873  -0.1500 
12    C9       1.8145   -1.8651    2.3530 C.ar    1  LIG  -0.1748  -0.1500 
13    C10      0.5552   -2.0346    1.8200 C.ar    1  LIG   0.3964   0.4870 
14    N2       0.2807   -2.9178    0.8416 N.ar    1  LIG  -0.2743  -0.3100 
15    N3       1.2908   -3.6880    0.3454 N.ar    1  LIG  -0.3189  -0.3100 
16    Cl1     -0.7828   -1.1182    2.3716 Cl      1  LIG  -0.1218  -0.1770 
17    H1       7.0468   -9.2729   -2.0080 H       1  LIG   0.0430   0.0000 
18    H2       6.7937   -7.5988   -1.4792 H       1  LIG   0.0518   0.0000 
19    H3       6.3376   -8.9373   -0.4181 H       1  LIG   0.0326   0.0000 
20    H4       5.0635   -8.3201   -3.1374 H       1  LIG   0.0772   0.0000 
21    H5       4.5791   -9.6488   -2.0847 H       1  LIG   0.0402   0.0000 
22    H6       3.9658   -9.0583    0.2373 H       1  LIG   0.0534   0.0000 
23    H7       3.1021   -7.5539    0.4876 H       1  LIG   0.0573   0.0000 
24    H8       1.4930   -9.3968    0.1542 H       1  LIG   0.0464   0.0000 
25    H9       1.3689   -8.2709   -1.2107 H       1  LIG   0.0423   0.0000 
26    H10      2.2259   -9.8027   -1.4072 H       1  LIG   0.0435   0.0000 
27    H11      2.5642   -4.8102   -1.8545 H       1  LIG   0.1165   0.0000 
28    H12      2.1196   -6.0585   -0.6946 H       1  LIG   0.1008   0.0000 
29    H13      3.8438   -2.5463    2.2399 H       1  LIG   0.1647   0.1500 
30    H14      2.0111   -1.1470    3.1414 H       1  LIG   0.1660   0.1500 
@<TRIPOS>BOND
1     1     2     1
2     1     17    1
3     1     18    1
4     1     19    1
5     2     3     1
6     2     20    1
7     2     21    1
8     3     4     1
9     3     6     am
10    4     5     1
11    4     22    1
12    4     23    1
13    5     24    1
14    5     25    1
15    5     26    1
16    6     7     2
17    6     8     1
18    8     9     1
19    8     27    1
20    8     28    1
21    9     10    1
22    10    15    ar
23    10    11    ar
24    11    12    ar
25    11    29    1
26    12    13    ar
27    12    30    1
28    13    14    ar
29    13    16    1
30    14    15    ar
@<TRIPOS>SUBSTRUCTURE
1   LIG    1    
 
########## Number      : 170
########## Name        : ZINC00000995
########## Description : AM1BCC_CHARGES =   1.0003 ORIGINAL_CHARGES =   1.0000

@<TRIPOS>MOLECULE
ZINC00000995
45    48    1     0     0    
SMALL
USER_CHARGES
****
****
@<TRIPOS>ATOM
1     C1       5.4915   -2.3762    2.5159 C.ar    1  LIG  -0.0822  -0.1500 
2     C2       4.1203   -2.4138    2.7612 C.ar    1  LIG  -0.1172  -0.1500 
3     C3       3.5370   -1.4802    3.6193 C.ar    1  LIG  -0.0956  -0.1500 
4     C4       4.3220   -0.4989    4.2399 C.ar    1  LIG  -0.1804  -0.1435 
5     C5       5.7007   -0.4706    3.9868 C.ar    1  LIG  -0.1188  -0.1500 
6     C6       6.2815   -1.4055    3.1285 C.ar    1  LIG  -0.1140  -0.1500 
7     C7       3.6947    0.5165    5.1567 C.3     1  LIG   0.1757   0.6465 
8     C8       3.3041    2.9364    5.6847 C.3     1  LIG   0.0809   0.5030 
9     C9       3.3380    4.3496    5.1093 C.3     1  LIG   0.0730   0.3001 
10    N1       2.4640    4.4419    3.9409 N.am    1  LIG  -0.4931  -0.6602 
11    C10      2.8014    3.4937    2.8745 C.3     1  LIG   0.0809   0.3001 
12    C11      2.7318    2.0638    3.3954 C.3     1  LIG   0.0814   0.5030 
13    C12      1.4555    5.4180    3.8969 C.2     1  LIG   0.7216   0.7150 
14    O1       1.4322    6.3550    4.6975 O.2     1  LIG  -0.5413  -0.5700 
15    C13      0.4193    5.2936    2.8957 C.2     1  LIG  -0.0867   0.0550 
16    C14     -0.3298    6.2635    2.2557 C.2     1  LIG  -0.0334  -0.1500 
17    C15     -1.2606    5.5868    1.4250 C.ar    1  LIG  -0.1339   0.0000 
18    C16     -2.2713    5.9696    0.5262 C.ar    1  LIG  -0.0539  -0.1500 
19    C17     -3.0083    4.9687   -0.1219 C.ar    1  LIG  -0.1424  -0.1500 
20    C18     -2.7523    3.6160    0.1171 C.ar    1  LIG  -0.0803  -0.1500 
21    C19     -1.7541    3.2142    1.0099 C.ar    1  LIG  -0.1362  -0.1500 
22    C20     -1.0381    4.2321    1.6366 C.ar    1  LIG   0.0768   0.1400 
23    O2      -0.0345    4.0544    2.5388 O.3     1  LIG  -0.2290  -0.2800 
24    H1       5.9444   -3.1037    1.8483 H       1  LIG   0.1610   0.1500 
25    H2       3.5046   -3.1711    2.2839 H       1  LIG   0.1599   0.1500 
26    H3       2.4652   -1.5243    3.7969 H       1  LIG   0.1427   0.1500 
27    H4       6.3329    0.2778    4.4584 H       1  LIG   0.1307   0.1500 
28    H5       7.3509   -1.3773    2.9385 H       1  LIG   0.1589   0.1500 
29    H6       4.2738    0.5554    6.0874 H       1  LIG   0.1039   0.0000 
30    H7       2.6647    0.2460    5.4182 H       1  LIG   0.1047   0.0000 
31    H8       2.3069    2.6751    6.0563 H       1  LIG   0.1097   0.0000 
32    H9       4.0414    2.8269    6.4862 H       1  LIG   0.1046   0.0000 
33    H10      3.0365    5.0632    5.8823 H       1  LIG   0.1343   0.0000 
34    H11      4.3522    4.6164    4.7896 H       1  LIG   0.0678   0.0000 
35    H12      2.1755    3.6194    1.9903 H       1  LIG   0.1269   0.0000 
36    H13      3.8247    3.7271    2.5535 H       1  LIG   0.0635   0.0000 
37    H14      3.0758    1.3637    2.6292 H       1  LIG   0.1132   0.0000 
38    H15      1.7225    1.7959    3.7264 H       1  LIG   0.1112   0.0000 
39    H16     -0.2147    7.3323    2.3734 H       1  LIG   0.1897   0.1500 
40    H17     -2.4825    7.0170    0.3327 H       1  LIG   0.1553   0.1500 
41    H18     -3.7923    5.2508   -0.8205 H       1  LIG   0.1525   0.1500 
42    H19     -3.3409    2.8615   -0.3993 H       1  LIG   0.1504   0.1500 
43    H20     -1.5500    2.1681    1.2036 H       1  LIG   0.1501   0.1500 
44    N2       3.6551    1.9302    4.5992 N.4     1  LIG  -0.6862  -0.9590 
45    H21      4.6081    2.1533    4.2815 H       1  LIG   0.4436   0.4500 
@<TRIPOS>BOND
1     1     6     ar
2     1     2     ar
3     1     24    1
4     2     3     ar
5     2     25    1
6     3     4     ar
7     3     26    1
8     4     5     ar
9     4     7     1
10    5     6     ar
11    5     27    1
12    6     28    1
13    7     29    1
14    7     30    1
15    7     44    1
16    8     9     1
17    8     31    1
18    8     32    1
19    8     44    1
20    9     10    1
21    9     33    1
22    9     34    1
23    10    11    1
24    10    13    am
25    11    12    1
26    11    35    1
27    11    36    1
28    12    37    1
29    12    38    1
30    12    44    1
31    13    14    2
32    13    15    1
33    15    23    1
34    15    16    2
35    16    17    1
36    16    39    1
37    17    22    ar
38    17    18    ar
39    18    19    ar
40    18    40    1
41    19    20    ar
42    19    41    1
43    20    21    ar
44    20    42    1
45    21    22    ar
46    21    43    1
47    22    23    1
48    44    45    1
@<TRIPOS>SUBSTRUCTURE
1   LIG    1    
 
########## Number      : 171
########## Name        : ZINC00000998
########## Description : AM1BCC_CHARGES =   1.0000 ORIGINAL_CHARGES =   1.0000

@<TRIPOS>MOLECULE
ZINC00000998
45    47    1     0     0    
SMALL
USER_CHARGES
****
****
@<TRIPOS>ATOM
1     C1      -6.5138    3.6391    2.6333 C.3     1  LIG  -0.0571   0.1800 
2     C2      -5.7200    4.3216    1.5713 C.2     1  LIG   0.0039  -0.3316 
3     C3      -5.1453    3.7937    0.4228 C.2     1  LIG  -0.2365  -0.1810 
4     C4      -4.4508    4.8580   -0.2347 C.ar    1  LIG  -0.0452   0.0000 
5     C5      -3.6721    4.9354   -1.4111 C.ar    1  LIG  -0.1576  -0.1500 
6     C6      -3.0922    6.1520   -1.7988 C.ar    1  LIG   0.1313   0.0825 
7     C7      -3.2845    7.2883   -1.0170 C.ar    1  LIG  -0.1775  -0.1500 
8     C8      -4.0526    7.2373    0.1526 C.ar    1  LIG  -0.0780  -0.1500 
9     C9      -4.6306    6.0132    0.5253 C.ar    1  LIG  -0.0723  -0.1516 
10    N1      -5.4334    5.6731    1.6000 N.pl3   1  LIG  -0.0454   0.0476 
11    C10     -5.8641    6.6153    2.6334 C.3     1  LIG   0.0850   0.3991 
12    C11     -6.9190    7.5744    2.1415 C.ar    1  LIG  -0.1300  -0.1435 
13    C12     -8.1195    7.1180    1.5776 C.ar    1  LIG  -0.1120  -0.1500 
14    C13     -9.0918    8.0224    1.1455 C.ar    1  LIG  -0.1240  -0.1500 
15    C14     -8.8811    9.3926    1.2801 C.ar    1  LIG  -0.1092  -0.1500 
16    C15     -7.6998    9.8599    1.8509 C.ar    1  LIG  -0.1226  -0.1500 
17    C16     -6.7268    8.9569    2.2835 C.ar    1  LIG  -0.1142  -0.1500 
18    O1      -2.3617    6.0908   -2.9571 O.3     1  LIG  -0.3312  -0.3625 
19    C17     -1.7574    7.3001   -3.4005 C.3     1  LIG   0.1113   0.2800 
20    C18     -5.2095    2.3713   -0.0423 C.3     1  LIG   0.0025   0.1810 
21    C19     -4.0896    1.5302    0.5558 C.3     1  LIG   0.0896   0.5030 
22    H1      -3.4530   -0.4537    0.4458 H       1  LIG   0.4576   0.4500 
23    H2      -5.0970   -0.2912    0.3191 H       1  LIG   0.4540   0.4500 
24    H3      -6.6463    2.5750    2.4171 H       1  LIG   0.0410   0.0000 
25    H4      -6.0050    3.7139    3.5998 H       1  LIG   0.0644   0.0000 
26    H5      -7.5099    4.0824    2.7234 H       1  LIG   0.0734   0.0000 
27    H6      -3.5177    4.0474   -2.0192 H       1  LIG   0.1343   0.1500 
28    H7      -2.8485    8.2460   -1.2861 H       1  LIG   0.1509   0.1500 
29    H8      -4.1890    8.1339    0.7483 H       1  LIG   0.1495   0.1500 
30    H9      -6.2452    6.0631    3.4973 H       1  LIG   0.0708   0.0000 
31    H10     -4.9620    7.1417    2.9682 H       1  LIG   0.0727   0.0000 
32    H11     -8.3109    6.0542    1.4670 H       1  LIG   0.1264   0.1500 
33    H12    -10.0151    7.6560    0.7055 H       1  LIG   0.1406   0.1500 
34    H13     -9.6382   10.0951    0.9442 H       1  LIG   0.1442   0.1500 
35    H14     -7.5359   10.9280    1.9618 H       1  LIG   0.1438   0.1500 
36    H15     -5.8139    9.3429    2.7307 H       1  LIG   0.1340   0.1500 
37    H16     -1.2214    7.0841   -4.3298 H       1  LIG   0.0752   0.0000 
38    H17     -2.5129    8.0613   -3.6215 H       1  LIG   0.0411   0.0000 
39    H18     -1.0261    7.6660   -2.6722 H       1  LIG   0.0376   0.0000 
40    H19     -6.1850    1.9411    0.2163 H       1  LIG   0.0579   0.0000 
41    H20     -5.1532    2.3416   -1.1378 H       1  LIG   0.0711   0.0000 
42    H21     -3.0994    1.8945    0.2643 H       1  LIG   0.1224   0.0000 
43    H22     -4.1476    1.4811    1.6477 H       1  LIG   0.1083   0.0000 
44    N2      -4.1994    0.1376    0.0565 N.4     1  LIG  -0.8398  -0.8530 
45    H23     -4.1203    0.0935   -0.9684 H       1  LIG   0.4578   0.4500 
@<TRIPOS>BOND
1     1     2     1
2     1     24    1
3     1     25    1
4     1     26    1
5     2     10    1
6     2     3     2
7     3     4     1
8     3     20    1
9     4     9     ar
10    4     5     ar
11    5     6     ar
12    5     27    1
13    6     7     ar
14    6     18    1
15    7     8     ar
16    7     28    1
17    8     9     ar
18    8     29    1
19    9     10    1
20    10    11    1
21    11    12    1
22    11    30    1
23    11    31    1
24    12    17    ar
25    12    13    ar
26    13    14    ar
27    13    32    1
28    14    15    ar
29    14    33    1
30    15    16    ar
31    15    34    1
32    16    17    ar
33    16    35    1
34    17    36    1
35    18    19    1
36    19    37    1
37    19    38    1
38    19    39    1
39    20    21    1
40    20    40    1
41    20    41    1
42    21    42    1
43    21    43    1
44    21    44    1
45    22    44    1
46    23    44    1
47    44    45    1
@<TRIPOS>SUBSTRUCTURE
1   LIG    1    
 
########## Number      : 172
########## Name        : ZINC00000999
########## Description : AM1BCC_CHARGES =   0.0001 ORIGINAL_CHARGES =  -0.0000

@<TRIPOS>MOLECULE
ZINC00000999
27    28    1     0     0    
SMALL
USER_CHARGES
****
****
@<TRIPOS>ATOM
1     C1       4.3894   -7.6360    1.5840 C.3     1  LIG   0.0897   0.3001 
2     N1       4.0452   -6.6911    0.5299 N.am    1  LIG  -0.4173  -0.4231 
3     C2       3.8069   -5.3627    0.8442 C.2     1  LIG   0.4897   0.2902 
4     C3       3.4792   -4.4342   -0.1086 C.2     1  LIG  -0.3527  -0.2366 
5     C4       3.3482   -4.7393   -1.5003 C.2     1  LIG   0.7630   0.7150 
6     O1       3.0425   -3.9076   -2.3503 O.2     1  LIG  -0.6306  -0.5700 
7     N2       3.6069   -6.1060   -1.7699 N.am    1  LIG  -0.4831  -0.4201 
8     C5       3.9522   -7.1162   -0.8125 C.2     1  LIG   0.8139   0.6900 
9     O2       4.1540   -8.2880   -1.1498 O.2     1  LIG  -0.6340  -0.5700 
10    C6       3.5118   -6.5524   -3.1545 C.3     1  LIG   0.0800   0.3001 
11    N3       3.3266   -3.2658    0.5876 N.pl3   1  LIG  -0.1584   0.0476 
12    C7       3.5679   -3.5455    1.9084 C.2     1  LIG   0.4508   0.0365 
13    N4       3.8613   -4.8148    2.0957 N.2     1  LIG  -0.6825  -0.5653 
14    C8       2.9933   -1.9561    0.0611 C.3     1  LIG   0.0270   0.2556 
15    C9       1.4936   -1.7806   -0.1180 C.3     1  LIG   0.0069   0.2900 
16    Cl1      1.1337   -0.1596   -0.7524 Cl      1  LIG  -0.1669  -0.2900 
17    H1       3.5733   -7.6696    2.3124 H       1  LIG   0.0529   0.0000 
18    H2       4.5482   -8.6420    1.1873 H       1  LIG   0.0850   0.0000 
19    H3       5.3087   -7.3022    2.0751 H       1  LIG   0.0548   0.0000 
20    H4       3.2632   -5.7393   -3.8404 H       1  LIG   0.0818   0.0000 
21    H5       4.4697   -6.9922   -3.4503 H       1  LIG   0.0563   0.0000 
22    H6       2.7422   -7.3280   -3.2212 H       1  LIG   0.0548   0.0000 
23    H7       3.5156   -2.7915    2.6824 H       1  LIG   0.0726   0.1500 
24    H8       3.3910   -1.2113    0.7612 H       1  LIG   0.0740   0.0000 
25    H9       3.5330   -1.8295   -0.8837 H       1  LIG   0.1075   0.0000 
26    H10      1.0827   -2.5126   -0.8198 H       1  LIG   0.0935   0.0000 
27    H11      0.9650   -1.8921    0.8342 H       1  LIG   0.0714   0.0000 
@<TRIPOS>BOND
1     1     2     1
2     1     17    1
3     1     18    1
4     1     19    1
5     2     8     am
6     2     3     1
7     3     13    1
8     3     4     2
9     4     5     1
10    4     11    1
11    5     6     2
12    5     7     am
13    7     8     am
14    7     10    1
15    8     9     2
16    10    20    1
17    10    21    1
18    10    22    1
19    11    12    1
20    11    14    1
21    12    13    2
22    12    23    1
23    14    15    1
24    14    24    1
25    14    25    1
26    15    16    1
27    15    26    1
28    15    27    1
@<TRIPOS>SUBSTRUCTURE
1   LIG    1    
 
########## Number      : 173
########## Name        : ZINC00001001
########## Description : AM1BCC_CHARGES =   1.0000 ORIGINAL_CHARGES =   1.0000

@<TRIPOS>MOLECULE
ZINC00001001
44    47    1     0     0    
SMALL
USER_CHARGES
****
****
@<TRIPOS>ATOM
1     C1       2.1909   13.2136   12.0766 C.3     1  LIG   0.0836   0.5030 
2     C2       0.8614   11.1765   12.5634 C.3     1  LIG   0.0794   0.5030 
3     C3       1.3834   11.8181   10.1781 C.3     1  LIG   0.0902   0.5030 
4     C4       1.3717   10.4081    9.5968 C.3     1  LIG   0.1124   0.2800 
5     O1       1.0989   10.5259    8.1985 O.3     1  LIG  -0.3260  -0.3625 
6     C5       1.0467    9.3714    7.4502 C.ar    1  LIG   0.0931   0.0825 
7     C6       1.2403    8.1007    7.9851 C.ar    1  LIG  -0.1408  -0.1500 
8     C7       1.1629    7.0149    7.1296 C.ar    1  LIG  -0.1616   0.0862 
9     C8       0.9070    7.0779    5.7725 C.ar    1  LIG   0.0217   0.0000 
10    C9       0.7033    8.3946    5.2031 C.ar    1  LIG  -0.0013   0.0000 
11    C10      0.7771    9.5362    6.0614 C.ar    1  LIG  -0.0210   0.0000 
12    C11      0.5781   10.8204    5.5044 C.ar    1  LIG  -0.1197  -0.1500 
13    C12      0.3136   11.0036    4.1497 C.ar    1  LIG  -0.1071  -0.1500 
14    C13      0.2411    9.9031    3.3148 C.ar    1  LIG  -0.1113  -0.1500 
15    C14      0.4330    8.6220    3.8349 C.ar    1  LIG  -0.1114  -0.1500 
16    C15      0.9129    5.7474    5.2689 C.ar    1  LIG  -0.0254   0.0000 
17    C16      0.7175    5.1770    3.9829 C.ar    1  LIG  -0.1026  -0.1500 
18    C17      0.7880    3.7877    3.8047 C.ar    1  LIG  -0.1015  -0.1500 
19    C18      1.0515    2.9417    4.8874 C.ar    1  LIG  -0.1277  -0.1500 
20    C19      1.2467    3.4747    6.1566 C.ar    1  LIG  -0.0498  -0.1500 
21    C20      1.1695    4.8540    6.2952 C.ar    1  LIG  -0.1814   0.0862 
22    C21      1.3406    5.6163    7.5268 C.2     1  LIG   0.5992   0.3976 
23    O2       1.5774    5.1870    8.6335 O.2     1  LIG  -0.5008  -0.5700 
24    H1       2.9688   13.6034   11.4148 H       1  LIG   0.1088   0.0000 
25    H2       1.2897   13.8309   12.0315 H       1  LIG   0.1089   0.0000 
26    H3       2.5740   13.1504   13.0986 H       1  LIG   0.1075   0.0000 
27    H4       0.7574   10.1242   12.2916 H       1  LIG   0.1084   0.0000 
28    H5       1.2669   11.2489   13.5763 H       1  LIG   0.1070   0.0000 
29    H6      -0.0939   11.7024   12.4873 H       1  LIG   0.1091   0.0000 
30    H7       0.3941   12.2878   10.1303 H       1  LIG   0.1185   0.0000 
31    H8       2.0818   12.4448    9.6110 H       1  LIG   0.1225   0.0000 
32    H9       2.3515    9.9395    9.7477 H       1  LIG   0.0582   0.0000 
33    H10      0.5868    9.8114   10.0737 H       1  LIG   0.0667   0.0000 
34    H11      1.4472    7.9292    9.0351 H       1  LIG   0.1446   0.1500 
35    H12      0.6274   11.7107    6.1290 H       1  LIG   0.1377   0.1500 
36    H13      0.1655   12.0034    3.7528 H       1  LIG   0.1454   0.1500 
37    H14      0.0353   10.0339    2.2563 H       1  LIG   0.1491   0.1500 
38    H15      0.3637    7.8028    3.1309 H       1  LIG   0.1459   0.1500 
39    H16      0.5110    5.7873    3.1132 H       1  LIG   0.1413   0.1500 
40    H17      0.6365    3.3639    2.8152 H       1  LIG   0.1461   0.1500 
41    H18      1.1033    1.8674    4.7344 H       1  LIG   0.1496   0.1500 
42    H19      1.4517    2.8310    7.0050 H       1  LIG   0.1576   0.1500 
43    N1       1.8417   11.8206   11.6197 N.4     1  LIG  -0.6763  -0.9590 
44    H20      2.7132   11.2753   11.6690 H       1  LIG   0.4532   0.4500 
@<TRIPOS>BOND
1     1     24    1
2     1     25    1
3     1     26    1
4     1     43    1
5     2     27    1
6     2     28    1
7     2     29    1
8     2     43    1
9     3     4     1
10    3     30    1
11    3     31    1
12    3     43    1
13    4     5     1
14    4     32    1
15    4     33    1
16    5     6     1
17    6     11    ar
18    6     7     ar
19    7     8     ar
20    7     34    1
21    8     22    1
22    8     9     ar
23    9     10    ar
24    9     16    1
25    10    15    ar
26    10    11    ar
27    11    12    ar
28    12    13    ar
29    12    35    1
30    13    14    ar
31    13    36    1
32    14    15    ar
33    14    37    1
34    15    38    1
35    16    21    ar
36    16    17    ar
37    17    18    ar
38    17    39    1
39    18    19    ar
40    18    40    1
41    19    20    ar
42    19    41    1
43    20    21    ar
44    20    42    1
45    21    22    1
46    22    23    2
47    43    44    1
@<TRIPOS>SUBSTRUCTURE
1   LIG    1    
 
########## Number      : 174
########## Name        : ZINC00001008
########## Description : AM1BCC_CHARGES =   0.0000 ORIGINAL_CHARGES =   0.0000

@<TRIPOS>MOLECULE
ZINC00001008
24    24    1     0     0    
SMALL
USER_CHARGES
****
****
@<TRIPOS>ATOM
1     C1       4.3329   -6.8647   -0.0017 C.ar    1  LIG  -0.0689  -0.1500 
2     C2       4.2462   -8.2272   -0.2940 C.ar    1  LIG  -0.1336  -0.1500 
3     C3       2.9983   -8.8467   -0.3387 C.ar    1  LIG   0.0374   0.1770 
4     C4       1.8371   -8.1160   -0.0894 C.ar    1  LIG  -0.1329  -0.1500 
5     C5       1.9219   -6.7523    0.2023 C.ar    1  LIG  -0.0938  -0.1500 
6     C6       3.1707   -6.1194    0.2376 C.ar    1  LIG  -0.1415   0.0862 
7     C7       3.3116   -4.6750    0.5557 C.2     1  LIG   0.6758   0.5438 
8     O1       4.3396   -4.2707    1.0920 O.2     1  LIG  -0.6026  -0.5700 
9     N1       2.2488   -3.8660    0.1925 N.am    1  LIG  -0.5689  -0.7301 
10    C8       2.2610   -2.4407    0.4467 C.3     1  LIG   0.0244   0.3611 
11    C9       0.9297   -1.8282    0.0641 C.2     1  LIG   0.5770   0.5690 
12    O2       0.0423   -2.4483   -0.5179 O.2     1  LIG  -0.5627  -0.5700 
13    N2       0.8436   -0.5056    0.4244 N.am    1  LIG  -0.3473  -0.3945 
14    O3      -0.3450    0.1761    0.1209 O.3     1  LIG  -0.4318  -0.4355 
15    Cl1      2.8903  -10.5272   -0.6974 Cl      1  LIG  -0.0830  -0.1770 
16    H1       1.4573   -4.2481   -0.3158 H       1  LIG   0.3347   0.3700 
17    H2       1.5502    0.0191    0.9281 H       1  LIG   0.3033   0.3700 
18    H3      -0.9489   -0.5495   -0.1176 H       1  LIG   0.4370   0.4000 
19    H4       5.3133   -6.3952    0.0280 H       1  LIG   0.1610   0.1500 
20    H5       5.1559   -8.7910   -0.4831 H       1  LIG   0.1545   0.1500 
21    H6       0.8620   -8.5958   -0.1129 H       1  LIG   0.1536   0.1500 
22    H7       1.0038   -6.2130    0.4175 H       1  LIG   0.1446   0.1500 
23    H8       2.4643   -2.2732    1.5095 H       1  LIG   0.0852   0.0000 
24    H9       3.0603   -1.9880   -0.1487 H       1  LIG   0.0785   0.0000 
@<TRIPOS>BOND
1     1     6     ar
2     1     2     ar
3     1     19    1
4     2     3     ar
5     2     20    1
6     3     4     ar
7     3     15    1
8     4     5     ar
9     4     21    1
10    5     6     ar
11    5     22    1
12    6     7     1
13    7     8     2
14    7     9     am
15    9     10    1
16    9     16    1
17    10    11    1
18    10    23    1
19    10    24    1
20    11    12    2
21    11    13    am
22    13    14    1
23    13    17    1
24    14    18    1
@<TRIPOS>SUBSTRUCTURE
1   LIG    1    
 
########## Number      : 175
########## Name        : ZINC00001010
########## Description : AM1BCC_CHARGES =   0.0002 ORIGINAL_CHARGES =   0.0000

@<TRIPOS>MOLECULE
ZINC00001010
23    23    1     0     0    
SMALL
USER_CHARGES
****
****
@<TRIPOS>ATOM
1     C1       6.5052   -9.0008   -1.5889 C.3     1  LIG  -0.1247   0.0000 
2     C2       6.4092   -7.7166   -0.7878 C.3     1  LIG   0.1396   0.2800 
3     O1       5.0462   -7.2595   -0.7535 O.3     1  LIG  -0.4446  -0.4300 
4     C3       4.2537   -7.7547    0.2304 C.2     1  LIG   0.6557   0.6338 
5     O2       4.5808   -8.5558    1.0918 O.2     1  LIG  -0.5566  -0.5700 
6     C4       2.8862   -7.1849    0.1266 C.ar    1  LIG  -0.1904   0.0862 
7     C5       2.5253   -6.2721   -0.8701 C.ar    1  LIG  -0.0256  -0.1500 
8     C6       1.2217   -5.7672   -0.9210 C.ar    1  LIG  -0.2220  -0.1500 
9     C7       0.2588   -6.1658    0.0121 C.ar    1  LIG   0.1923   0.1000 
10    C8       0.6297   -7.0726    1.0101 C.ar    1  LIG  -0.2199  -0.1500 
11    C9       1.9305   -7.5821    1.0681 C.ar    1  LIG  -0.0292  -0.1500 
12    N1      -1.0263   -5.6487   -0.0322 N.pl3   1  LIG  -0.8364  -0.9000 
13    H1      -1.2998   -5.0195   -0.7750 H       1  LIG   0.4061   0.4000 
14    H2      -1.7283   -5.9648    0.6234 H       1  LIG   0.4064   0.4000 
15    H3       7.5445   -9.3320   -1.6682 H       1  LIG   0.0442   0.0000 
16    H4       5.9184   -9.7985   -1.1224 H       1  LIG   0.0558   0.0000 
17    H5       6.1020   -8.8565   -2.5966 H       1  LIG   0.0432   0.0000 
18    H6       6.8049   -7.8468    0.2258 H       1  LIG   0.0632   0.0000 
19    H7       6.9996   -6.9315   -1.2708 H       1  LIG   0.0608   0.0000 
20    H8       3.2365   -5.9346   -1.6192 H       1  LIG   0.1526   0.1500 
21    H9       0.9638   -5.0556   -1.7023 H       1  LIG   0.1367   0.1500 
22    H10     -0.0949   -7.3933    1.7552 H       1  LIG   0.1377   0.1500 
23    H11      2.1795   -8.2876    1.8572 H       1  LIG   0.1553   0.1500 
@<TRIPOS>BOND
1     1     2     1
2     1     15    1
3     1     16    1
4     1     17    1
5     2     3     1
6     2     18    1
7     2     19    1
8     3     4     1
9     4     5     2
10    4     6     1
11    6     11    ar
12    6     7     ar
13    7     8     ar
14    7     20    1
15    8     9     ar
16    8     21    1
17    9     10    ar
18    9     12    1
19    10    11    ar
20    10    22    1
21    11    23    1
22    12    13    1
23    12    14    1
@<TRIPOS>SUBSTRUCTURE
1   LIG    1    
 
########## Number      : 176
########## Name        : ZINC00001011
########## Description : AM1BCC_CHARGES =  -1.0000 ORIGINAL_CHARGES =  -1.0000

@<TRIPOS>MOLECULE
ZINC00001011
14    14    1     0     0    
SMALL
USER_CHARGES
****
****
@<TRIPOS>ATOM
1     C1      -0.3887    3.0259    0.2201 C.ar    1  LIG  -0.1616  -0.1500 
2     C2       0.8174    2.3708    0.4545 C.ar    1  LIG  -0.1658  -0.1500 
3     C3       1.3410    2.3068    1.7484 C.ar    1  LIG  -0.1085  -0.1500 
4     C4       0.6657    2.8977    2.8286 C.ar    1  LIG  -0.1238  -0.1790 
5     C5      -0.5493    3.5542    2.5737 C.ar    1  LIG  -0.1085  -0.1500 
6     C6      -1.0719    3.6175    1.2794 C.ar    1  LIG  -0.1658  -0.1500 
7     C7       1.2307    2.8290    4.2266 C.2     1  LIG   0.9064   0.9790 
8     O1       2.3346    2.2179    4.3794 O.co2   1  LIG  -0.8340  -0.9000 
9     H1      -0.7952    3.0754   -0.7856 H       1  LIG   0.0974   0.1500 
10    H2       1.3533    1.9081   -0.3693 H       1  LIG   0.1009   0.1500 
11    H3       2.2848    1.7886    1.9017 H       1  LIG   0.1483   0.1500 
12    H4      -1.1046    4.0252    3.3816 H       1  LIG   0.1481   0.1500 
13    H5      -2.0130    4.1295    1.1006 H       1  LIG   0.1008   0.1500 
14    O2       0.5629    3.3870    5.1529 O.co2   1  LIG  -0.8339  -0.9000 
@<TRIPOS>BOND
1     1     6     ar
2     1     2     ar
3     1     9     1
4     2     3     ar
5     2     10    1
6     3     4     ar
7     3     11    1
8     4     5     ar
9     4     7     1
10    5     6     ar
11    5     12    1
12    6     13    1
13    7     8     2
14    7     14    1
@<TRIPOS>SUBSTRUCTURE
1   LIG    1    
 
########## Number      : 177
########## Name        : ZINC00001012
########## Description : AM1BCC_CHARGES =  -0.0001 ORIGINAL_CHARGES =   0.0000

@<TRIPOS>MOLECULE
ZINC00001012
31    33    1     0     0    
SMALL
USER_CHARGES
****
****
@<TRIPOS>ATOM
1     C1       6.5162  -10.4095    0.0600 C.ar    1  LIG  -0.0953  -0.1500 
2     C2       5.5696   -9.8346   -0.7854 C.ar    1  LIG  -0.1464  -0.1500 
3     C3       5.0009   -8.6007   -0.4638 C.ar    1  LIG  -0.0734  -0.1500 
4     C4       5.3782   -7.9339    0.7096 C.ar    1  LIG  -0.1379   0.0862 
5     C5       6.3305   -8.5166    1.5560 C.ar    1  LIG  -0.0678  -0.1500 
6     C6       6.8957   -9.7515    1.2285 C.ar    1  LIG  -0.1485  -0.1500 
7     C7       4.7421   -6.6234    1.0042 C.2     1  LIG   0.6497   0.6338 
8     O1       3.9115   -6.1045    0.2734 O.2     1  LIG  -0.5188  -0.5700 
9     O2       5.2331   -6.1202    2.1944 O.3     1  LIG  -0.3720  -0.2325 
10    C8       4.6777   -4.8838    2.5341 C.ar    1  LIG   0.1080   0.0825 
11    C9       3.5490   -4.8481    3.3464 C.ar    1  LIG  -0.1221  -0.1500 
12    C10      3.0173   -3.6128    3.7130 C.ar    1  LIG  -0.1081  -0.1500 
13    C11      3.6155   -2.4152    3.2813 C.ar    1  LIG  -0.0379   0.0000 
14    C12      3.0892   -1.1648    3.6436 C.ar    1  LIG  -0.1162  -0.1500 
15    C13      3.6948    0.0158    3.2117 C.ar    1  LIG  -0.1259  -0.1500 
16    C14      4.8336   -0.0365    2.4132 C.ar    1  LIG  -0.1252  -0.1500 
17    C15      5.3713   -1.2695    2.0429 C.ar    1  LIG  -0.1159  -0.1500 
18    C16      4.7747   -2.4677    2.4673 C.ar    1  LIG  -0.0283   0.0000 
19    C17      5.3038   -3.7146    2.1028 C.ar    1  LIG  -0.1138  -0.1500 
20    H1       6.9579  -11.3695   -0.1913 H       1  LIG   0.1366   0.1500 
21    H2       5.2733  -10.3470   -1.6964 H       1  LIG   0.1406   0.1500 
22    H3       4.2645   -8.1732   -1.1399 H       1  LIG   0.1582   0.1500 
23    H4       6.6511   -8.0336    2.4749 H       1  LIG   0.1562   0.1500 
24    H5       7.6340  -10.2006    1.8872 H       1  LIG   0.1396   0.1500 
25    H6       3.0827   -5.7661    3.6907 H       1  LIG   0.1465   0.1500 
26    H7       2.1303   -3.5901    4.3427 H       1  LIG   0.1369   0.1500 
27    H8       2.2004   -1.0995    4.2678 H       1  LIG   0.1334   0.1500 
28    H9       3.2769    0.9762    3.4995 H       1  LIG   0.1330   0.1500 
29    H10      5.3044    0.8832    2.0777 H       1  LIG   0.1330   0.1500 
30    H11      6.2617   -1.2865    1.4180 H       1  LIG   0.1346   0.1500 
31    H12      6.1959   -3.7797    1.4844 H       1  LIG   0.1471   0.1500 
@<TRIPOS>BOND
1     1     6     ar
2     1     2     ar
3     1     20    1
4     2     3     ar
5     2     21    1
6     3     4     ar
7     3     22    1
8     4     5     ar
9     4     7     1
10    5     6     ar
11    5     23    1
12    6     24    1
13    7     8     2
14    7     9     1
15    9     10    1
16    10    19    ar
17    10    11    ar
18    11    12    ar
19    11    25    1
20    12    13    ar
21    12    26    1
22    13    18    ar
23    13    14    ar
24    14    15    ar
25    14    27    1
26    15    16    ar
27    15    28    1
28    16    17    ar
29    16    29    1
30    17    18    ar
31    17    30    1
32    18    19    ar
33    19    31    1
@<TRIPOS>SUBSTRUCTURE
1   LIG    1    
 
########## Number      : 178
########## Name        : ZINC00001015
########## Description : AM1BCC_CHARGES =  -0.0000 ORIGINAL_CHARGES =   0.0000

@<TRIPOS>MOLECULE
ZINC00001015
30    32    1     0     0    
SMALL
USER_CHARGES
****
****
@<TRIPOS>ATOM
1     C1       6.1414   -9.7470   -0.4075 C.ar    1  LIG  -0.0972  -0.1500 
2     C2       6.0059   -8.7530   -1.3745 C.ar    1  LIG  -0.1472  -0.1500 
3     C3       5.5111   -7.4960   -1.0222 C.ar    1  LIG  -0.0746  -0.1500 
4     C4       5.1461   -7.2284    0.3038 C.ar    1  LIG  -0.1319   0.0862 
5     C5       5.2877   -8.2299    1.2730 C.ar    1  LIG  -0.0653  -0.1500 
6     C6       5.7837   -9.4854    0.9140 C.ar    1  LIG  -0.1489  -0.1500 
7     C7       4.6293   -5.8741    0.6273 C.2     1  LIG   0.6605   0.6338 
8     O1       4.6415   -4.9459   -0.1673 O.2     1  LIG  -0.5193  -0.5700 
9     O2       4.1374   -5.8581    1.9189 O.3     1  LIG  -0.3586  -0.2325 
10    C8       3.6640   -4.5947    2.3084 C.ar    1  LIG   0.0726   0.0825 
11    C9       2.3060   -4.3246    2.1186 C.ar    1  LIG  -0.1202  -0.1500 
12    C10      1.8002   -3.0956    2.5184 C.ar    1  LIG  -0.1181  -0.1500 
13    C11      2.6482   -2.1607    3.1101 C.ar    1  LIG  -0.1121  -0.1500 
14    C12      4.0107   -2.4514    3.3121 C.ar    1  LIG  -0.1395   0.0000 
15    C13      4.5441   -3.6939    2.9129 C.ar    1  LIG   0.3960   0.3100 
16    N1       5.8456   -4.0009    3.1039 N.ar    1  LIG  -0.6448  -0.6200 
17    C14      6.6435   -3.0795    3.6885 C.ar    1  LIG   0.4137   0.1600 
18    C15      6.2108   -1.8381    4.1073 C.ar    1  LIG  -0.2461  -0.1500 
19    C16      4.8729   -1.5248    3.9142 C.ar    1  LIG  -0.0806  -0.1500 
20    H1       6.5271  -10.7245   -0.6829 H       1  LIG   0.1351   0.1500 
21    H2       6.2860   -8.9560   -2.4044 H       1  LIG   0.1391   0.1500 
22    H3       5.4143   -6.7368   -1.7945 H       1  LIG   0.1561   0.1500 
23    H4       5.0255   -8.0590    2.3135 H       1  LIG   0.1582   0.1500 
24    H5       5.8926  -10.2602    1.6680 H       1  LIG   0.1386   0.1500 
25    H6       1.6531   -5.0616    1.6609 H       1  LIG   0.1503   0.1500 
26    H7       0.7494   -2.8633    2.3732 H       1  LIG   0.1391   0.1500 
27    H8       2.2376   -1.2015    3.4188 H       1  LIG   0.1366   0.1500 
28    H9       7.6785   -3.3806    3.8142 H       1  LIG   0.0239   0.1500 
29    H10      6.8907   -1.1333    4.5713 H       1  LIG   0.1451   0.1500 
30    H11      4.5056   -0.5534    4.2373 H       1  LIG   0.1395   0.1500 
@<TRIPOS>BOND
1     1     6     ar
2     1     2     ar
3     1     20    1
4     2     3     ar
5     2     21    1
6     3     4     ar
7     3     22    1
8     4     5     ar
9     4     7     1
10    5     6     ar
11    5     23    1
12    6     24    1
13    7     8     2
14    7     9     1
15    9     10    1
16    10    15    ar
17    10    11    ar
18    11    12    ar
19    11    25    1
20    12    13    ar
21    12    26    1
22    13    14    ar
23    13    27    1
24    14    19    ar
25    14    15    ar
26    15    16    ar
27    16    17    ar
28    17    18    ar
29    17    28    1
30    18    19    ar
31    18    29    1
32    19    30    1
@<TRIPOS>SUBSTRUCTURE
1   LIG    1    
 
########## Number      : 179
########## Name        : ZINC00001016
########## Description : AM1BCC_CHARGES =   0.0002 ORIGINAL_CHARGES =   0.0000

@<TRIPOS>MOLECULE
ZINC00001016
28    29    1     0     0    
SMALL
USER_CHARGES
****
****
@<TRIPOS>ATOM
1     C1       4.7600   -9.7887    0.4179 C.ar    1  LIG  -0.0920  -0.1500 
2     C2       4.4761   -9.5298    1.7573 C.ar    1  LIG  -0.1462  -0.1500 
3     C3       4.3273   -8.2142    2.2001 C.ar    1  LIG  -0.0692  -0.1500 
4     C4       4.4648   -7.1481    1.3013 C.ar    1  LIG  -0.1411   0.0862 
5     C5       4.7471   -7.4138   -0.0451 C.ar    1  LIG  -0.0642  -0.1500 
6     C6       4.8945   -8.7325   -0.4816 C.ar    1  LIG  -0.1462  -0.1500 
7     C7       4.2933   -5.7681    1.8208 C.2     1  LIG   0.6312   0.6338 
8     O1       3.9095   -5.5217    2.9539 O.2     1  LIG  -0.4956  -0.5700 
9     O2       4.6335   -4.8622    0.8655 O.3     1  LIG  -0.2125  -0.1500 
10    O3       4.4183   -3.5395    1.4432 O.3     1  LIG  -0.2118  -0.1500 
11    C8       3.3775   -2.9812    0.7694 C.2     1  LIG   0.6311   0.6338 
12    O4       2.7608   -3.4795   -0.1597 O.2     1  LIG  -0.4955  -0.5700 
13    C9       3.0794   -1.6331    1.3148 C.ar    1  LIG  -0.1413   0.0862 
14    C10      3.6837   -1.1442    2.4804 C.ar    1  LIG  -0.0640  -0.1500 
15    C11      3.3634    0.1310    2.9522 C.ar    1  LIG  -0.1462  -0.1500 
16    C12      2.4413    0.9212    2.2681 C.ar    1  LIG  -0.0920  -0.1500 
17    C13      1.8351    0.4382    1.1101 C.ar    1  LIG  -0.1462  -0.1500 
18    C14      2.1506   -0.8355    0.6334 C.ar    1  LIG  -0.0695  -0.1500 
19    H1       4.8750  -10.8129    0.0747 H       1  LIG   0.1377   0.1500 
20    H2       4.3699  -10.3530    2.4584 H       1  LIG   0.1413   0.1500 
21    H3       4.1062   -8.0377    3.2499 H       1  LIG   0.1559   0.1500 
22    H4       4.8521   -6.6158   -0.7750 H       1  LIG   0.1592   0.1500 
23    H5       5.1131   -8.9356   -1.5264 H       1  LIG   0.1418   0.1500 
24    H6       4.4017   -1.7351    3.0426 H       1  LIG   0.1590   0.1500 
25    H7       3.8334    0.5073    3.8567 H       1  LIG   0.1418   0.1500 
26    H8       2.1944    1.9122    2.6382 H       1  LIG   0.1376   0.1500 
27    H9       1.1154    1.0535    0.5774 H       1  LIG   0.1413   0.1500 
28    H10      1.6645   -1.1899   -0.2724 H       1  LIG   0.1558   0.1500 
@<TRIPOS>BOND
1     1     6     ar
2     1     2     ar
3     1     19    1
4     2     3     ar
5     2     20    1
6     3     4     ar
7     3     21    1
8     4     5     ar
9     4     7     1
10    5     6     ar
11    5     22    1
12    6     23    1
13    7     8     2
14    7     9     1
15    9     10    1
16    10    11    1
17    11    12    2
18    11    13    1
19    13    18    ar
20    13    14    ar
21    14    15    ar
22    14    24    1
23    15    16    ar
24    15    25    1
25    16    17    ar
26    16    26    1
27    17    18    ar
28    17    27    1
29    18    28    1
@<TRIPOS>SUBSTRUCTURE
1   LIG    1    
 
########## Number      : 180
########## Name        : ZINC00001018
########## Description : AM1BCC_CHARGES =  -1.0000 ORIGINAL_CHARGES =  -1.0000

@<TRIPOS>MOLECULE
ZINC00001018
29    30    1     0     0    
SMALL
USER_CHARGES
****
****
@<TRIPOS>ATOM
1     C1       6.8744  -10.0449   -0.7728 C.ar    1  LIG  -0.1214  -0.1500 
2     C2       5.5206  -10.2152   -0.4869 C.ar    1  LIG  -0.1429  -0.1500 
3     C3       4.7686   -9.1458    0.0016 C.ar    1  LIG  -0.0819  -0.1500 
4     C4       5.3757   -7.9018    0.2140 C.ar    1  LIG  -0.1349   0.0862 
5     C5       6.7324   -7.7294   -0.0865 C.ar    1  LIG  -0.1073  -0.1500 
6     C6       7.4783   -8.8035   -0.5757 C.ar    1  LIG  -0.1418  -0.1500 
7     C7       4.5412   -6.7812    0.7227 C.2     1  LIG   0.6690   0.5438 
8     O1       3.3709   -6.7291    0.3607 O.2     1  LIG  -0.5980  -0.5700 
9     N1       5.1953   -5.9196    1.5912 N.am    1  LIG  -0.4538  -0.5470 
10    C8       4.6712   -4.7530    2.1979 C.ar    1  LIG   0.0633   0.1170 
11    C9       3.3899   -4.2528    1.9686 C.ar    1  LIG  -0.2143  -0.1500 
12    C10      2.9569   -3.0857    2.6137 C.ar    1  LIG  -0.0544  -0.1500 
13    C11      3.7869   -2.3836    3.5032 C.ar    1  LIG  -0.2233  -0.1790 
14    C12      5.0734   -2.8981    3.7208 C.ar    1  LIG   0.1982   0.0825 
15    C13      5.5107   -4.0626    3.0795 C.ar    1  LIG  -0.2600  -0.1500 
16    O2       5.9780   -2.3058    4.5633 O.3     1  LIG  -0.5548  -0.5325 
17    C14      3.2772   -1.1289    4.1765 C.2     1  LIG   0.9185   0.9790 
18    O3       4.0701   -0.5322    4.9716 O.co2   1  LIG  -0.8578  -0.9000 
19    H1       6.1499   -6.1459    1.8561 H       1  LIG   0.3092   0.3700 
20    H2       5.5593   -1.5115    4.9460 H       1  LIG   0.4854   0.4500 
21    H3       7.4577  -10.8779   -1.1547 H       1  LIG   0.1255   0.1500 
22    H4       5.0498  -11.1813   -0.6455 H       1  LIG   0.1297   0.1500 
23    H5       3.7145   -9.2975    0.2200 H       1  LIG   0.1550   0.1500 
24    H6       7.2225   -6.7672    0.0329 H       1  LIG   0.1405   0.1500 
25    H7       8.5309   -8.6702   -0.8098 H       1  LIG   0.1294   0.1500 
26    H8       2.6927   -4.7340    1.2923 H       1  LIG   0.1509   0.1500 
27    H9       1.9489   -2.7321    2.4044 H       1  LIG   0.1572   0.1500 
28    H10      6.5172   -4.4254    3.2782 H       1  LIG   0.1223   0.1500 
29    O4       2.0935   -0.7565    3.9028 O.co2   1  LIG  -0.8075  -0.9000 
@<TRIPOS>BOND
1     1     6     ar
2     1     2     ar
3     1     21    1
4     2     3     ar
5     2     22    1
6     3     4     ar
7     3     23    1
8     4     5     ar
9     4     7     1
10    5     6     ar
11    5     24    1
12    6     25    1
13    7     8     2
14    7     9     am
15    9     10    1
16    9     19    1
17    10    15    ar
18    10    11    ar
19    11    12    ar
20    11    26    1
21    12    13    ar
22    12    27    1
23    13    14    ar
24    13    17    1
25    14    15    ar
26    14    16    1
27    15    28    1
28    16    20    1
29    17    18    2
30    17    29    1
@<TRIPOS>SUBSTRUCTURE
1   LIG    1    
 
########## Number      : 181
########## Name        : ZINC00001019
########## Description : AM1BCC_CHARGES =   0.9998 ORIGINAL_CHARGES =   1.0000

@<TRIPOS>MOLECULE
ZINC00001019
52    55    1     0     0    
SMALL
USER_CHARGES
****
****
@<TRIPOS>ATOM
1     C1      -0.2795    1.2105    4.7131 C.3     1  LIG   0.0846   0.5030 
2     C2      -1.4667    2.0545    2.6897 C.3     1  LIG   0.1154   0.5030 
3     C3      -2.6061    2.9519    2.2296 C.3     1  LIG  -0.1227   0.0000 
4     C4      -2.3855    4.4069    2.6598 C.3     1  LIG   0.1070   0.3001 
5     C5      -2.1588    4.4960    4.1731 C.3     1  LIG  -0.1481   0.0000 
6     C6      -1.0239    3.5882    4.6236 C.3     1  LIG   0.1198   0.5030 
7     N1      -3.4877    5.2563    2.2420 N.am    1  LIG  -0.3331  -0.3401 
8     C7      -4.8374    5.2048    2.5568 C.2     1  LIG   0.6785   0.6156 
9     O1      -5.4361    4.3716    3.2165 O.2     1  LIG  -0.6125  -0.5700 
10    C8      -5.4724    6.4101    1.9292 C.2     1  LIG  -0.1991  -0.1238 
11    C9      -4.4424    7.0706    1.3683 C.2     1  LIG   0.1521   0.0716 
12    N2      -3.2554    6.4167    1.5612 N.pl3   1  LIG  -0.4555  -0.5200 
13    C10     -4.5002    8.2959    0.5745 C.ar    1  LIG  -0.0801   0.0284 
14    C11     -4.0914    8.2866   -0.7664 C.ar    1  LIG  -0.1072  -0.1500 
15    C12     -4.1466    9.4540   -1.5303 C.ar    1  LIG  -0.1247  -0.1500 
16    C13     -4.6063   10.6400   -0.9612 C.ar    1  LIG  -0.0996  -0.1500 
17    C14     -5.0099   10.6608    0.3724 C.ar    1  LIG  -0.1254  -0.1500 
18    C15     -4.9563    9.4948    1.1385 C.ar    1  LIG  -0.0960  -0.1500 
19    C16     -6.9334    6.6828    1.9887 C.3     1  LIG   0.0340   0.2817 
20    C17     -7.7177    5.8948    0.9684 C.ar    1  LIG  -0.0959  -0.1435 
21    C18     -7.8580    6.3744   -0.3422 C.ar    1  LIG  -0.1206  -0.1500 
22    C19     -8.5645    5.6375   -1.2938 C.ar    1  LIG  -0.1280  -0.1500 
23    C20     -9.1342    4.4140   -0.9470 C.ar    1  LIG  -0.1206  -0.1500 
24    C21     -8.9973    3.9256    0.3510 C.ar    1  LIG  -0.1294  -0.1500 
25    C22     -8.2912    4.6608    1.3045 C.ar    1  LIG  -0.1189  -0.1500 
26    H1      -2.4406    6.5623    0.9802 H       1  LIG   0.4039   0.4000 
27    H2      -0.2629    1.2947    5.8028 H       1  LIG   0.1044   0.0000 
28    H3      -0.5792    0.2001    4.4230 H       1  LIG   0.1047   0.0000 
29    H4       0.6920    1.4704    4.2843 H       1  LIG   0.1031   0.0000 
30    H5      -0.5127    2.3369    2.2308 H       1  LIG   0.0981   0.0000 
31    H6      -1.6864    1.0061    2.4626 H       1  LIG   0.1039   0.0000 
32    H7      -2.6967    2.8966    1.1380 H       1  LIG   0.1096   0.0000 
33    H8      -3.5507    2.5710    2.6373 H       1  LIG   0.1083   0.0000 
34    H9      -1.4814    4.7735    2.1542 H       1  LIG   0.0749   0.0000 
35    H10     -1.9315    5.5311    4.4555 H       1  LIG   0.1103   0.0000 
36    H11     -3.0759    4.2237    4.7111 H       1  LIG   0.0957   0.0000 
37    H12     -0.9427    3.5861    5.7155 H       1  LIG   0.1024   0.0000 
38    H13     -0.0646    3.8853    4.1854 H       1  LIG   0.0992   0.0000 
39    H14     -3.7354    7.3701   -1.2316 H       1  LIG   0.1310   0.1500 
40    H15     -3.8318    9.4372   -2.5699 H       1  LIG   0.1469   0.1500 
41    H16     -4.6488   11.5478   -1.5562 H       1  LIG   0.1481   0.1500 
42    H17     -5.3655   11.5859    0.8174 H       1  LIG   0.1487   0.1500 
43    H18     -5.2696    9.5347    2.1793 H       1  LIG   0.1424   0.1500 
44    H19     -7.3091    6.4626    2.9962 H       1  LIG   0.0709   0.0000 
45    H20     -7.1406    7.7496    1.8433 H       1  LIG   0.0679   0.0000 
46    H21     -7.4181    7.3262   -0.6297 H       1  LIG   0.1330   0.1500 
47    H22     -8.6693    6.0180   -2.3058 H       1  LIG   0.1373   0.1500 
48    H23     -9.6837    3.8408   -1.6882 H       1  LIG   0.1379   0.1500 
49    H24     -9.4393    2.9707    0.6212 H       1  LIG   0.1356   0.1500 
50    H25     -8.1900    4.2632    2.3114 H       1  LIG   0.1383   0.1500 
51    N3      -1.3099    2.1717    4.1867 N.4     1  LIG  -0.6868  -0.9590 
52    H26     -2.2064    1.8952    4.6113 H       1  LIG   0.4561   0.4500 
@<TRIPOS>BOND
1     1     27    1
2     1     28    1
3     1     29    1
4     1     51    1
5     2     3     1
6     2     30    1
7     2     31    1
8     2     51    1
9     3     4     1
10    3     32    1
11    3     33    1
12    4     5     1
13    4     7     1
14    4     34    1
15    5     6     1
16    5     35    1
17    5     36    1
18    6     37    1
19    6     38    1
20    6     51    1
21    7     12    1
22    7     8     am
23    8     9     2
24    8     10    1
25    10    11    2
26    10    19    1
27    11    12    1
28    11    13    1
29    12    26    1
30    13    18    ar
31    13    14    ar
32    14    15    ar
33    14    39    1
34    15    16    ar
35    15    40    1
36    16    17    ar
37    16    41    1
38    17    18    ar
39    17    42    1
40    18    43    1
41    19    20    1
42    19    44    1
43    19    45    1
44    20    25    ar
45    20    21    ar
46    21    22    ar
47    21    46    1
48    22    23    ar
49    22    47    1
50    23    24    ar
51    23    48    1
52    24    25    ar
53    24    49    1
54    25    50    1
55    51    52    1
@<TRIPOS>SUBSTRUCTURE
1   LIG    1    
 
########## Number      : 182
########## Name        : ZINC00001021
########## Description : AM1BCC_CHARGES =  -0.0000 ORIGINAL_CHARGES =   0.0000

@<TRIPOS>MOLECULE
ZINC00001021
28    29    1     0     0    
SMALL
USER_CHARGES
****
****
@<TRIPOS>ATOM
1     C1       5.7112   -8.5214    0.1947 C.ar    1  LIG  -0.1191  -0.1500 
2     C2       5.3510   -8.1548   -1.1008 C.ar    1  LIG  -0.1360  -0.1500 
3     C3       4.1201   -7.5406   -1.3375 C.ar    1  LIG  -0.1026  -0.1500 
4     C4       3.2364   -7.2923   -0.2793 C.ar    1  LIG  -0.1247  -0.1435 
5     C5       3.6112   -7.6579    1.0208 C.ar    1  LIG  -0.1053  -0.1500 
6     C6       4.8423   -8.2721    1.2554 C.ar    1  LIG  -0.1380  -0.1500 
7     C7       1.9180   -6.6128   -0.5263 C.3     1  LIG   0.1834   0.4235 
8     O1       1.9826   -5.2469   -0.0817 O.3     1  LIG  -0.4376  -0.4300 
9     C8       2.3025   -4.3065   -1.0057 C.2     1  LIG   0.6522   0.6338 
10    O2       2.5346   -4.4983   -2.1889 O.2     1  LIG  -0.5467  -0.5700 
11    C9       2.3364   -2.9610   -0.3782 C.ar    1  LIG  -0.1348   0.0862 
12    C10      2.1450   -2.7681    0.9963 C.ar    1  LIG  -0.0688  -0.1500 
13    C11      2.1897   -1.4802    1.5352 C.ar    1  LIG  -0.1490  -0.1500 
14    C12      2.4254   -0.3820    0.7099 C.ar    1  LIG  -0.0967  -0.1500 
15    C13      2.6180   -0.5683   -0.6575 C.ar    1  LIG  -0.1471  -0.1500 
16    C14      2.5747   -1.8531   -1.2024 C.ar    1  LIG  -0.0727  -0.1500 
17    H1       6.6697   -8.9985    0.3779 H       1  LIG   0.1311   0.1500 
18    H2       6.0297   -8.3449   -1.9273 H       1  LIG   0.1334   0.1500 
19    H3       3.8567   -7.2546   -2.3529 H       1  LIG   0.1454   0.1500 
20    H4       2.9453   -7.4642    1.8582 H       1  LIG   0.1338   0.1500 
21    H5       5.1241   -8.5539    2.2659 H       1  LIG   0.1316   0.1500 
22    H6       1.6136   -6.6807   -1.5778 H       1  LIG   0.0743   0.0000 
23    H7       1.1317   -7.1110    0.0526 H       1  LIG   0.0696   0.0000 
24    H8       1.9621   -3.6015    1.6690 H       1  LIG   0.1545   0.1500 
25    H9       2.0410   -1.3342    2.6016 H       1  LIG   0.1383   0.1500 
26    H10      2.4597    0.6181    1.1324 H       1  LIG   0.1356   0.1500 
27    H11      2.8025    0.2873   -1.3011 H       1  LIG   0.1393   0.1500 
28    H12      2.7280   -1.9725   -2.2721 H       1  LIG   0.1566   0.1500 
@<TRIPOS>BOND
1     1     6     ar
2     1     2     ar
3     1     17    1
4     2     3     ar
5     2     18    1
6     3     4     ar
7     3     19    1
8     4     5     ar
9     4     7     1
10    5     6     ar
11    5     20    1
12    6     21    1
13    7     8     1
14    7     22    1
15    7     23    1
16    8     9     1
17    9     10    2
18    9     11    1
19    11    16    ar
20    11    12    ar
21    12    13    ar
22    12    24    1
23    13    14    ar
24    13    25    1
25    14    15    ar
26    14    26    1
27    15    16    ar
28    15    27    1
29    16    28    1
@<TRIPOS>SUBSTRUCTURE
1   LIG    1    
 
########## Number      : 183
########## Name        : ZINC00001023
########## Description : AM1BCC_CHARGES =   1.0002 ORIGINAL_CHARGES =   1.0000

@<TRIPOS>MOLECULE
ZINC00001023
41    42    1     0     0    
SMALL
USER_CHARGES
****
****
@<TRIPOS>ATOM
1     C1       7.3415   -8.2464    3.7786 C.3     1  LIG   0.0896   0.5030 
2     N1       6.8307   -6.9425    3.1296 N.4     1  LIG  -0.6036  -1.0120 
3     C2       7.8297   -6.5711    2.0389 C.3     1  LIG   0.0846   0.5030 
4     C3       5.4256   -7.2404    2.5694 C.3     1  LIG   0.1026   0.5030 
5     C4       4.9776   -6.3247    1.4310 C.3     1  LIG   0.1167   0.2800 
6     O1       3.5830   -6.5652    1.2178 O.3     1  LIG  -0.3342  -0.3625 
7     C5       2.9544   -5.7895    0.2804 C.ar    1  LIG   0.0977   0.0825 
8     C6       3.5648   -4.8301   -0.5316 C.ar    1  LIG  -0.1967  -0.1500 
9     C7       2.8036   -4.1036   -1.4517 C.ar    1  LIG  -0.0926  -0.1500 
10    C8       1.4337   -4.3317   -1.5670 C.ar    1  LIG  -0.1393  -0.1500 
11    C9       0.8207   -5.2887   -0.7624 C.ar    1  LIG  -0.0913  -0.1500 
12    C10      1.5789   -6.0148    0.1570 C.ar    1  LIG  -0.1405  -0.1500 
13    C11      6.8042   -5.8767    4.2621 C.3     1  LIG   0.1824   0.6465 
14    C12      6.2833   -4.4986    3.9502 C.ar    1  LIG  -0.1765  -0.1435 
15    C13      7.1244   -3.5187    3.4049 C.ar    1  LIG  -0.1112  -0.1500 
16    C14      6.6345   -2.2440    3.1149 C.ar    1  LIG  -0.1207  -0.1500 
17    C15      5.3014   -1.9322    3.3735 C.ar    1  LIG  -0.0809  -0.1500 
18    C16      4.4581   -2.8923    3.9278 C.ar    1  LIG  -0.1172  -0.1500 
19    C17      4.9464   -4.1671    4.2191 C.ar    1  LIG  -0.0972  -0.1500 
20    H1       6.6217   -8.5545    4.5429 H       1  LIG   0.1014   0.0000 
21    H2       7.4266   -9.0111    3.0005 H       1  LIG   0.1010   0.0000 
22    H3       8.3205   -8.0508    4.2263 H       1  LIG   0.0988   0.0000 
23    H4       7.5233   -5.6356    1.5673 H       1  LIG   0.1079   0.0000 
24    H5       8.8156   -6.4525    2.4984 H       1  LIG   0.0947   0.0000 
25    H6       7.8485   -7.3786    1.3009 H       1  LIG   0.0988   0.0000 
26    H7       5.4331   -8.2723    2.1955 H       1  LIG   0.1075   0.0000 
27    H8       4.7242   -7.2168    3.4121 H       1  LIG   0.1119   0.0000 
28    H9       5.1326   -5.2735    1.6774 H       1  LIG   0.0712   0.0000 
29    H10      5.5297   -6.5748    0.5174 H       1  LIG   0.0555   0.0000 
30    H11      4.6287   -4.6224   -0.4775 H       1  LIG   0.1274   0.1500 
31    H12      3.2825   -3.3580   -2.0806 H       1  LIG   0.1440   0.1500 
32    H13      0.8459   -3.7652   -2.2834 H       1  LIG   0.1497   0.1500 
33    H14     -0.2467   -5.4702   -0.8499 H       1  LIG   0.1502   0.1500 
34    H15      1.0889   -6.7592    0.7800 H       1  LIG   0.1537   0.1500 
35    H16      6.2123   -6.3121    5.0781 H       1  LIG   0.1002   0.0000 
36    H17      7.8335   -5.7968    4.6365 H       1  LIG   0.0983   0.0000 
37    H18      8.1696   -3.7393    3.2021 H       1  LIG   0.1346   0.1500 
38    H19      7.2941   -1.4932    2.6889 H       1  LIG   0.1584   0.1500 
39    H20      4.9212   -0.9401    3.1472 H       1  LIG   0.1610   0.1500 
40    H21      3.4195   -2.6489    4.1336 H       1  LIG   0.1612   0.1500 
41    H22      4.2720   -4.9025    4.6514 H       1  LIG   0.1411   0.1500 
@<TRIPOS>BOND
1     1     2     1
2     1     20    1
3     1     21    1
4     1     22    1
5     2     3     1
6     2     4     1
7     2     13    1
8     3     23    1
9     3     24    1
10    3     25    1
11    4     5     1
12    4     26    1
13    4     27    1
14    5     6     1
15    5     28    1
16    5     29    1
17    6     7     1
18    7     12    ar
19    7     8     ar
20    8     9     ar
21    8     30    1
22    9     10    ar
23    9     31    1
24    10    11    ar
25    10    32    1
26    11    12    ar
27    11    33    1
28    12    34    1
29    13    14    1
30    13    35    1
31    13    36    1
32    14    19    ar
33    14    15    ar
34    15    16    ar
35    15    37    1
36    16    17    ar
37    16    38    1
38    17    18    ar
39    17    39    1
40    18    19    ar
41    18    40    1
42    19    41    1
@<TRIPOS>SUBSTRUCTURE
1   LIG    1    
 
########## Number      : 184
########## Name        : ZINC00001036
########## Description : AM1BCC_CHARGES =   0.0002 ORIGINAL_CHARGES =   0.0000

@<TRIPOS>MOLECULE
ZINC00001036
47    50    1     0     0    
SMALL
USER_CHARGES
****
****
@<TRIPOS>ATOM
1     C1       5.2965   -5.0644   -0.0106 C.3     1  LIG  -0.0865   0.0000 
2     C2       4.8248   -6.4977    0.3644 C.3     1  LIG  -0.0790   0.0000 
3     C3       5.9645   -7.2355    1.1255 C.3     1  LIG  -0.0635   0.0000 
4     C4       5.8507   -7.1739    2.6699 C.3     1  LIG  -0.0683   0.0000 
5     C5       5.1720   -5.8643    3.1167 C.3     1  LIG  -0.0480   0.0000 
6     C6       3.6971   -5.8952    2.6436 C.3     1  LIG  -0.0482   0.0000 
7     C7       3.5606   -6.5323    1.2384 C.3     1  LIG  -0.0568   0.0000 
8     C8       2.4634   -6.0748    0.2747 C.3     1  LIG  -0.0714   0.0000 
9     C9       2.9005   -6.6546   -1.0942 C.3     1  LIG  -0.0801   0.0000 
10    C10      4.3476   -7.1894   -0.9210 C.3     1  LIG   0.1408   0.2800 
11    O1       4.2738   -8.5976   -0.7386 O.3     1  LIG  -0.5948  -0.6800 
12    C11      3.1146   -4.4794    2.7678 C.3     1  LIG  -0.0700   0.0000 
13    C12      3.1565   -4.0422    4.2425 C.3     1  LIG  -0.0541   0.1382 
14    C13      4.5318   -4.2133    4.8603 C.2     1  LIG  -0.0377  -0.2764 
15    C14      5.1105   -3.1685    5.4749 C.2     1  LIG  -0.2543  -0.1356 
16    C15      6.4891   -3.2423    5.9981 C.2     1  LIG   0.5620   0.5412 
17    O2       6.9922   -2.2986    6.5975 O.2     1  LIG  -0.5337  -0.5700 
18    C16      7.2458   -4.4831    5.7563 C.2     1  LIG  -0.2431  -0.1356 
19    C17      6.6689   -5.5230    5.1450 C.2     1  LIG  -0.1022  -0.2882 
20    C18      5.2258   -5.5719    4.6585 C.3     1  LIG   0.0056   0.2764 
21    C19      4.5355   -6.6506    5.5245 C.3     1  LIG  -0.0813   0.0000 
22    H1       5.1476   -8.9658   -0.9533 H       1  LIG   0.3986   0.4000 
23    H2       4.5352   -4.5119   -0.5711 H       1  LIG   0.0378   0.0000 
24    H3       5.5740   -4.4320    0.8289 H       1  LIG   0.0426   0.0000 
25    H4       6.1764   -5.1232   -0.6634 H       1  LIG   0.0325   0.0000 
26    H5       6.0265   -8.2944    0.8556 H       1  LIG   0.0418   0.0000 
27    H6       6.9329   -6.8116    0.8288 H       1  LIG   0.0406   0.0000 
28    H7       5.2727   -8.0374    3.0218 H       1  LIG   0.0447   0.0000 
29    H8       6.8583   -7.2822    3.0809 H       1  LIG   0.0405   0.0000 
30    H9       5.7546   -5.0822    2.6087 H       1  LIG   0.0617   0.0000 
31    H10      3.0689   -6.4932    3.3275 H       1  LIG   0.0480   0.0000 
32    H11      3.2735   -7.5764    1.4833 H       1  LIG   0.0593   0.0000 
33    H12      1.4776   -6.4482    0.5704 H       1  LIG   0.0469   0.0000 
34    H13      2.3979   -4.9844    0.2024 H       1  LIG   0.0423   0.0000 
35    H14      2.2135   -7.4457   -1.4137 H       1  LIG   0.0676   0.0000 
36    H15      2.8714   -5.8574   -1.8456 H       1  LIG   0.0460   0.0000 
37    H16      4.9452   -6.9723   -1.8175 H       1  LIG   0.0371   0.0000 
38    H17      3.6730   -3.7678    2.1492 H       1  LIG   0.0505   0.0000 
39    H18      2.0706   -4.4566    2.4362 H       1  LIG   0.0488   0.0000 
40    H19      2.8174   -3.0009    4.3051 H       1  LIG   0.0546   0.0000 
41    H20      2.4349   -4.6333    4.8198 H       1  LIG   0.0562   0.0000 
42    H21      4.6028   -2.2166    5.5899 H       1  LIG   0.1492   0.1500 
43    H22      8.2718   -4.5257    6.1025 H       1  LIG   0.1502   0.1500 
44    H23      7.2713   -6.4210    5.0292 H       1  LIG   0.1319   0.1500 
45    H24      4.6593   -6.4336    6.5939 H       1  LIG   0.0466   0.0000 
46    H25      3.4578   -6.7205    5.3541 H       1  LIG   0.0451   0.0000 
47    H26      4.9630   -7.6441    5.3477 H       1  LIG   0.0437   0.0000 
@<TRIPOS>BOND
1     1     2     1
2     1     23    1
3     1     24    1
4     1     25    1
5     2     7     1
6     2     10    1
7     2     3     1
8     3     4     1
9     3     26    1
10    3     27    1
11    4     5     1
12    4     28    1
13    4     29    1
14    5     20    1
15    5     6     1
16    5     30    1
17    6     7     1
18    6     12    1
19    6     31    1
20    7     8     1
21    7     32    1
22    8     9     1
23    8     33    1
24    8     34    1
25    9     10    1
26    9     35    1
27    9     36    1
28    10    11    1
29    10    37    1
30    11    22    1
31    12    13    1
32    12    38    1
33    12    39    1
34    13    14    1
35    13    40    1
36    13    41    1
37    14    20    1
38    14    15    2
39    15    16    1
40    15    42    1
41    16    17    2
42    16    18    1
43    18    19    2
44    18    43    1
45    19    20    1
46    19    44    1
47    20    21    1
48    21    45    1
49    21    46    1
50    21    47    1
@<TRIPOS>SUBSTRUCTURE
1   LIG    1    
 
########## Number      : 185
########## Name        : ZINC00001038
########## Description : AM1BCC_CHARGES =   0.9999 ORIGINAL_CHARGES =   1.0000

@<TRIPOS>MOLECULE
ZINC00001038
49    51    1     0     0    
SMALL
USER_CHARGES
****
****
@<TRIPOS>ATOM
1     C1       3.9373   -4.1502   -1.7867 C.3     1  LIG  -0.0885   0.0000 
2     C2       4.4615   -4.5495   -0.3812 C.3     1  LIG   0.0479   0.2870 
3     C3       3.2891   -4.5236    0.6010 C.ar    1  LIG  -0.0847  -0.1435 
4     C4       2.5324   -3.3361    0.7531 C.ar    1  LIG  -0.0936  -0.1500 
5     C5       1.4304   -3.2673    1.6010 C.ar    1  LIG  -0.1399  -0.1500 
6     C6       1.0526   -4.3898    2.3148 C.ar    1  LIG  -0.0974  -0.1500 
7     C7       1.7916   -5.5661    2.1917 C.ar    1  LIG  -0.1800  -0.1500 
8     C8       2.9318   -5.6501    1.3594 C.ar    1  LIG   0.0716   0.1170 
9     N1       3.6727   -6.8745    1.2896 N.am    1  LIG  -0.2908  -0.2940 
10    C9       4.7225   -7.0032    0.3241 C.ar    1  LIG   0.0737   0.1170 
11    C10      5.1237   -5.9252   -0.4821 C.ar    1  LIG  -0.0888  -0.1435 
12    C11      6.1917   -6.1196   -1.3919 C.ar    1  LIG  -0.0959  -0.1500 
13    C12      6.8454   -7.3429   -1.5116 C.ar    1  LIG  -0.1399  -0.1500 
14    C13      6.4524   -8.4029   -0.7154 C.ar    1  LIG  -0.0986  -0.1500 
15    C14      5.4084   -8.2329    0.1939 C.ar    1  LIG  -0.1729  -0.1500 
16    C15      3.3387   -7.9606    2.1043 C.2     1  LIG   0.7394   0.7710 
17    O1       2.7954   -8.9926    1.7236 O.2     1  LIG  -0.5210  -0.5700 
18    S1       3.8994   -7.7530    3.7777 S.3     1  LIG  -0.2127  -0.3710 
19    C16      3.2788   -9.2963    4.5132 C.3     1  LIG  -0.0730   0.2300 
20    C17      3.6411   -9.3353    5.9938 C.3     1  LIG   0.1225   0.5030 
21    C18      3.9227  -10.8730    7.9404 C.3     1  LIG   0.0817   0.5030 
22    C19      1.7583  -10.8593    6.7289 C.3     1  LIG   0.0800   0.5030 
23    C20      5.5224   -3.5258    0.0928 C.3     1  LIG  -0.0864   0.0000 
24    H1       3.4770   -3.1564   -1.7958 H       1  LIG   0.0428   0.0000 
25    H2       4.7339   -4.1164   -2.5376 H       1  LIG   0.0446   0.0000 
26    H3       3.1829   -4.8635   -2.1421 H       1  LIG   0.0505   0.0000 
27    H4       2.7949   -2.4375    0.1991 H       1  LIG   0.1470   0.1500 
28    H5       0.8670   -2.3435    1.6913 H       1  LIG   0.1458   0.1500 
29    H6       0.1850   -4.3572    2.9672 H       1  LIG   0.1393   0.1500 
30    H7       1.4378   -6.4220    2.7609 H       1  LIG   0.1251   0.1500 
31    H8       6.5376   -5.3036   -2.0225 H       1  LIG   0.1450   0.1500 
32    H9       7.6605   -7.4602   -2.2193 H       1  LIG   0.1459   0.1500 
33    H10      6.9564   -9.3618   -0.7927 H       1  LIG   0.1405   0.1500 
34    H11      5.1509   -9.0975    0.8002 H       1  LIG   0.1339   0.1500 
35    H12      2.1946   -9.3299    4.3738 H       1  LIG   0.0975   0.0000 
36    H13      3.7254  -10.1475    3.9884 H       1  LIG   0.1035   0.0000 
37    H14      4.7259   -9.2444    6.1235 H       1  LIG   0.1186   0.0000 
38    H15      3.1407   -8.5490    6.5707 H       1  LIG   0.1167   0.0000 
39    H16      3.6542  -11.8667    8.3088 H       1  LIG   0.1081   0.0000 
40    H17      5.0034  -10.8173    7.7856 H       1  LIG   0.1082   0.0000 
41    H18      3.5822  -10.0932    8.6269 H       1  LIG   0.1080   0.0000 
42    H19      1.5775  -11.8279    7.2029 H       1  LIG   0.1059   0.0000 
43    H20      1.3495  -10.0465    7.3348 H       1  LIG   0.1072   0.0000 
44    H21      1.3254  -10.8630    5.7267 H       1  LIG   0.1096   0.0000 
45    H22      5.9083   -3.7886    1.0859 H       1  LIG   0.0443   0.0000 
46    H23      6.3802   -3.4728   -0.5870 H       1  LIG   0.0448   0.0000 
47    H24      5.1178   -2.5097    0.1585 H       1  LIG   0.0431   0.0000 
48    N2       3.2471  -10.6679    6.6086 N.4     1  LIG  -0.6814  -0.9590 
49    H25      3.5997  -11.4110    5.9899 H       1  LIG   0.4527   0.4500 
@<TRIPOS>BOND
1     1     2     1
2     1     24    1
3     1     25    1
4     1     26    1
5     2     11    1
6     2     3     1
7     2     23    1
8     3     8     ar
9     3     4     ar
10    4     5     ar
11    4     27    1
12    5     6     ar
13    5     28    1
14    6     7     ar
15    6     29    1
16    7     8     ar
17    7     30    1
18    8     9     1
19    9     10    1
20    9     16    am
21    10    15    ar
22    10    11    ar
23    11    12    ar
24    12    13    ar
25    12    31    1
26    13    14    ar
27    13    32    1
28    14    15    ar
29    14    33    1
30    15    34    1
31    16    17    2
32    16    18    1
33    18    19    1
34    19    20    1
35    19    35    1
36    19    36    1
37    20    37    1
38    20    38    1
39    20    48    1
40    21    39    1
41    21    40    1
42    21    41    1
43    21    48    1
44    22    42    1
45    22    43    1
46    22    44    1
47    22    48    1
48    23    45    1
49    23    46    1
50    23    47    1
51    48    49    1
@<TRIPOS>SUBSTRUCTURE
1   LIG    1    
 
########## Number      : 186
########## Name        : ZINC00001039
########## Description : AM1BCC_CHARGES =   1.0001 ORIGINAL_CHARGES =   1.0000

@<TRIPOS>MOLECULE
ZINC00001039
45    47    1     0     0    
SMALL
USER_CHARGES
****
****
@<TRIPOS>ATOM
1     C1       4.5626    3.9803   -4.3792 C.ar    1  LIG  -0.1243  -0.1500 
2     C2       4.8512    3.3339   -5.5857 C.ar    1  LIG  -0.0783  -0.1500 
3     C3       4.0054    2.3356   -6.0770 C.ar    1  LIG  -0.1577  -0.1435 
4     C4       2.8568    2.0087   -5.3508 C.ar    1  LIG  -0.0765  -0.1500 
5     C5       2.5693    2.6566   -4.1449 C.ar    1  LIG  -0.1208  -0.1500 
6     C6       3.4171    3.6538   -3.6340 C.ar    1  LIG  -0.0241   0.0000 
7     C7       3.1137    4.3361   -2.3622 C.ar    1  LIG  -0.0469   0.0000 
8     C8       1.8337    4.8485   -2.0983 C.ar    1  LIG  -0.0791  -0.1500 
9     C9       1.5496    5.4951   -0.8914 C.ar    1  LIG  -0.1355  -0.1500 
10    C10      2.5362    5.6469    0.0850 C.ar    1  LIG   0.0970   0.0825 
11    C11      3.8130    5.1438   -0.1600 C.ar    1  LIG  -0.1952  -0.1500 
12    C12      4.0955    4.4971   -1.3700 C.ar    1  LIG  -0.0809  -0.1500 
13    O1       2.1313    6.2965    1.2197 O.3     1  LIG  -0.3266  -0.3625 
14    C13      3.1066    6.4776    2.2481 C.3     1  LIG   0.1149   0.2800 
15    C14      2.4262    7.2113    3.3984 C.3     1  LIG   0.0940   0.5030 
16    C15      2.6871    7.8206    5.8299 C.3     1  LIG   0.1140   0.5030 
17    C16      3.7966    8.5010    6.6004 C.3     1  LIG  -0.1034   0.0000 
18    C17      4.5112    9.2882    5.5212 C.3     1  LIG  -0.1026   0.0000 
19    C18      4.5160    8.3651    4.3134 C.3     1  LIG   0.1097   0.5030 
20    C19      4.3018    1.6580   -7.3834 C.3     1  LIG   0.6869   1.1635 
21    F1       3.7441    2.3092   -8.4410 F       1  LIG  -0.2300  -0.3400 
22    F2       5.6340    1.5748   -7.6556 F       1  LIG  -0.2329  -0.3400 
23    F3       3.8359    0.3792   -7.4435 F       1  LIG  -0.2319  -0.3400 
24    H1       5.2431    4.7563   -4.0338 H       1  LIG   0.1420   0.1500 
25    H2       5.7431    3.6205   -6.1382 H       1  LIG   0.1590   0.1500 
26    H3       2.1742    1.2444   -5.7154 H       1  LIG   0.1598   0.1500 
27    H4       1.6723    2.3636   -3.6026 H       1  LIG   0.1449   0.1500 
28    H5       1.0393    4.7598   -2.8368 H       1  LIG   0.1560   0.1500 
29    H6       0.5477    5.8824   -0.7210 H       1  LIG   0.1579   0.1500 
30    H7       4.6156    5.2324    0.5653 H       1  LIG   0.1285   0.1500 
31    H8       5.1007    4.1079   -1.5230 H       1  LIG   0.1504   0.1500 
32    H9       3.9445    7.0712    1.8650 H       1  LIG   0.0576   0.0000 
33    H10      3.4678    5.5028    2.5977 H       1  LIG   0.0589   0.0000 
34    H11      1.5727    6.6287    3.7642 H       1  LIG   0.1188   0.0000 
35    H12      2.0582    8.1983    3.0953 H       1  LIG   0.1208   0.0000 
36    H13      1.8859    8.5196    5.5662 H       1  LIG   0.1091   0.0000 
37    H14      2.2845    6.9326    6.3243 H       1  LIG   0.1083   0.0000 
38    H15      3.4160    9.1395    7.4024 H       1  LIG   0.1033   0.0000 
39    H16      4.4707    7.7577    7.0421 H       1  LIG   0.0902   0.0000 
40    H17      3.9502   10.2014    5.2882 H       1  LIG   0.0996   0.0000 
41    H18      5.5213    9.5857    5.8173 H       1  LIG   0.0929   0.0000 
42    H19      5.4301    7.7671    4.2493 H       1  LIG   0.1042   0.0000 
43    H20      4.3506    8.9105    3.3795 H       1  LIG   0.1092   0.0000 
44    N1       3.3738    7.3906    4.5509 N.4     1  LIG  -0.6879  -0.9590 
45    H21      3.7979    6.4737    4.7496 H       1  LIG   0.4468   0.4500 
@<TRIPOS>BOND
1     1     6     ar
2     1     2     ar
3     1     24    1
4     2     3     ar
5     2     25    1
6     3     4     ar
7     3     20    1
8     4     5     ar
9     4     26    1
10    5     6     ar
11    5     27    1
12    6     7     1
13    7     12    ar
14    7     8     ar
15    8     9     ar
16    8     28    1
17    9     10    ar
18    9     29    1
19    10    11    ar
20    10    13    1
21    11    12    ar
22    11    30    1
23    12    31    1
24    13    14    1
25    14    15    1
26    14    32    1
27    14    33    1
28    15    34    1
29    15    35    1
30    15    44    1
31    16    17    1
32    16    36    1
33    16    37    1
34    16    44    1
35    17    18    1
36    17    38    1
37    17    39    1
38    18    19    1
39    18    40    1
40    18    41    1
41    19    42    1
42    19    43    1
43    19    44    1
44    20    21    1
45    20    22    1
46    20    23    1
47    44    45    1
@<TRIPOS>SUBSTRUCTURE
1   LIG    1    
 
########## Number      : 187
########## Name        : ZINC00001041
########## Description : AM1BCC_CHARGES =   1.0001 ORIGINAL_CHARGES =   1.0000

@<TRIPOS>MOLECULE
ZINC00001041
30    30    1     0     0    
SMALL
USER_CHARGES
****
****
@<TRIPOS>ATOM
1     C1       2.8462   -9.0419    1.4869 C.3     1  LIG  -0.1299   0.0000 
2     C2       3.6596   -8.0556    0.6640 C.3     1  LIG   0.1175   0.5030 
3     N1       2.8174   -7.2362   -0.3450 N.4     1  LIG  -0.6042  -1.0120 
4     C3       3.7993   -6.3404   -1.1080 C.3     1  LIG   0.0871   0.5030 
5     C4       2.1518   -8.1687   -1.3542 C.3     1  LIG   0.0860   0.5030 
6     C5       1.7663   -6.3753    0.4159 C.3     1  LIG   0.1679   0.6465 
7     C6       0.9742   -5.3510   -0.3703 C.ar    1  LIG  -0.1439  -0.1435 
8     C7      -0.1492   -5.7916   -1.0959 C.ar    1  LIG  -0.1143  -0.1500 
9     C8      -0.9231   -4.9070   -1.8489 C.ar    1  LIG  -0.1058  -0.1500 
10    C9      -0.5956   -3.5572   -1.8852 C.ar    1  LIG  -0.0840  -0.1500 
11    C10      0.4989   -3.0911   -1.1612 C.ar    1  LIG  -0.0935  -0.1500 
12    C11      1.2770   -3.9773   -0.4034 C.ar    1  LIG  -0.0096   0.1110 
13    Br1      2.7139   -3.2106    0.5784 Br      1  LIG  -0.0582  -0.1110 
14    H1       3.5163   -9.5980    2.1516 H       1  LIG   0.0971   0.0000 
15    H2       2.1104   -8.5417    2.1220 H       1  LIG   0.0658   0.0000 
16    H3       2.3309   -9.7760    0.8620 H       1  LIG   0.0642   0.0000 
17    H4       4.1627   -7.3365    1.3209 H       1  LIG   0.0993   0.0000 
18    H5       4.4226   -8.5901    0.0860 H       1  LIG   0.0966   0.0000 
19    H6       3.2488   -5.7564   -1.8498 H       1  LIG   0.1084   0.0000 
20    H7       4.3058   -5.6914   -0.3896 H       1  LIG   0.1044   0.0000 
21    H8       4.5283   -6.9823   -1.6127 H       1  LIG   0.0944   0.0000 
22    H9       1.7637   -7.5716   -2.1837 H       1  LIG   0.1043   0.0000 
23    H10      2.9050   -8.8693   -1.7271 H       1  LIG   0.0970   0.0000 
24    H11      1.3382   -8.7048   -0.8596 H       1  LIG   0.0961   0.0000 
25    H12      1.0568   -7.0809    0.8651 H       1  LIG   0.1038   0.0000 
26    H13      2.2963   -5.9109    1.2534 H       1  LIG   0.1134   0.0000 
27    H14     -0.4386   -6.8402   -1.0773 H       1  LIG   0.1375   0.1500 
28    H15     -1.7825   -5.2735   -2.4032 H       1  LIG   0.1626   0.1500 
29    H16     -1.1966   -2.8659   -2.4691 H       1  LIG   0.1670   0.1500 
30    H17      0.7311   -2.0290   -1.1913 H       1  LIG   0.1731   0.1500 
@<TRIPOS>BOND
1     1     2     1
2     1     14    1
3     1     15    1
4     1     16    1
5     2     3     1
6     2     17    1
7     2     18    1
8     3     4     1
9     3     5     1
10    3     6     1
11    4     19    1
12    4     20    1
13    4     21    1
14    5     22    1
15    5     23    1
16    5     24    1
17    6     7     1
18    6     25    1
19    6     26    1
20    7     12    ar
21    7     8     ar
22    8     9     ar
23    8     27    1
24    9     10    ar
25    9     28    1
26    10    11    ar
27    10    29    1
28    11    12    ar
29    11    30    1
30    12    13    1
@<TRIPOS>SUBSTRUCTURE
1   LIG    1    
 
########## Number      : 188
########## Name        : ZINC00001042
########## Description : AM1BCC_CHARGES =   1.0000 ORIGINAL_CHARGES =   0.9999

@<TRIPOS>MOLECULE
ZINC00001042
28    30    1     0     0    
SMALL
USER_CHARGES
****
****
@<TRIPOS>ATOM
1     C1       6.2209   -6.2540   -0.3847 C.ar    1  LIG  -0.1127  -0.1500 
2     C2       6.0438   -4.8749   -0.3166 C.ar    1  LIG  -0.1247  -0.1500 
3     C3       4.7619   -4.3369   -0.2547 C.ar    1  LIG  -0.0443   0.3110 
4     C4       3.6600   -5.2018   -0.3515 C.ar    1  LIG  -0.0618   0.1110 
5     C5       3.8295   -6.5981   -0.4137 C.ar    1  LIG   0.2971   0.3100 
6     C6       5.1379   -7.1214   -0.4191 C.ar    1  LIG   0.3058   0.3100 
7     N1       5.3654   -8.4450   -0.4756 N.ar    1  LIG  -0.6089  -0.6200 
8     C7       4.2989   -9.2611   -0.5326 C.ar    1  LIG   0.3295   0.1600 
9     C8       3.0225   -8.7684   -0.5362 C.ar    1  LIG   0.3277   0.1600 
10    N2       2.7787   -7.4461   -0.4791 N.ar    1  LIG  -0.6108  -0.6200 
11    Br1      1.8897   -4.5112   -0.5880 Br      1  LIG  -0.0239  -0.1110 
12    N3       4.6862   -2.9138   -0.1553 N.pl3   1  LIG  -0.3037  -0.8277 
13    C9       3.9036   -2.2534    0.7655 C.cat   1  LIG   0.4817   1.2000 
14    C10      2.5075   -1.7845    2.5587 C.3     1  LIG   0.0012   0.3276 
15    C11      2.9290   -0.4707    1.8881 C.3     1  LIG   0.0006   0.3276 
16    N4       3.8044   -0.8606    0.7838 N.pl3   1  LIG  -0.3731  -0.8443 
17    H1       5.3970   -2.3646   -0.6356 H       1  LIG   0.3402   0.4500 
18    H2       4.2694   -0.2508    0.1180 H       1  LIG   0.3306   0.4500 
19    H3       7.2332   -6.6535   -0.4067 H       1  LIG   0.1842   0.1500 
20    H4       6.9180   -4.2297   -0.2794 H       1  LIG   0.1628   0.1500 
21    H5       4.5084  -10.3223   -0.5773 H       1  LIG   0.0613   0.1500 
22    H6       2.1545   -9.4136   -0.5846 H       1  LIG   0.0607   0.1500 
23    H7       1.4253   -1.9332    2.5098 H       1  LIG   0.0955   0.0000 
24    H8       2.8384   -1.8298    3.5999 H       1  LIG   0.1055   0.0000 
25    H9       2.0681    0.0732    1.4896 H       1  LIG   0.1071   0.0000 
26    H10      3.4843    0.1726    2.5762 H       1  LIG   0.0923   0.0000 
27    N5       3.1718   -2.8415    1.7973 N.pl3   1  LIG  -0.3596  -0.8443 
28    H11      3.1312   -3.8403    1.9729 H       1  LIG   0.3397   0.4500 
@<TRIPOS>BOND
1     1     6     ar
2     1     2     ar
3     1     19    1
4     2     3     ar
5     2     20    1
6     3     4     ar
7     3     12    1
8     4     5     ar
9     4     11    1
10    5     10    ar
11    5     6     ar
12    6     7     ar
13    7     8     ar
14    8     9     ar
15    8     21    1
16    9     10    ar
17    9     22    1
18    12    13    1
19    12    17    1
20    13    16    1
21    13    27    2
22    14    15    1
23    14    23    1
24    14    24    1
25    14    27    1
26    15    16    1
27    15    25    1
28    15    26    1
29    16    18    1
30    27    28    1
@<TRIPOS>SUBSTRUCTURE
1   LIG    1    
 
########## Number      : 189
########## Name        : ZINC00001050
########## Description : AM1BCC_CHARGES =  -1.0000 ORIGINAL_CHARGES =  -1.0000

@<TRIPOS>MOLECULE
ZINC00001050
20    20    1     0     0    
SMALL
USER_CHARGES
****
****
@<TRIPOS>ATOM
1     C1       1.9324   -7.4337   -2.7337 C.3     1  LIG  -0.1472   0.0610 
2     C2       2.5408   -7.1202   -1.3991 C.2     1  LIG   0.7098   0.6590 
3     O1       2.9277   -7.9657   -0.6033 O.2     1  LIG  -0.5543  -0.5700 
4     O2       2.5842   -5.7383   -1.2445 O.3     1  LIG  -0.3901  -0.2325 
5     C3       3.1135   -5.3275   -0.0139 C.ar    1  LIG   0.1621   0.0825 
6     C4       4.5052   -5.3511    0.1407 C.ar    1  LIG  -0.1633  -0.1500 
7     C5       5.0754   -4.8959    1.3259 C.ar    1  LIG  -0.1175  -0.1500 
8     C6       4.2520   -4.4062    2.3377 C.ar    1  LIG  -0.0505   0.1110 
9     C7       2.8638   -4.3637    2.1735 C.ar    1  LIG  -0.0654  -0.1500 
10    C8       2.2675   -4.8223    0.9864 C.ar    1  LIG  -0.1389  -0.1790 
11    C9       0.7706   -4.7499    0.8320 C.2     1  LIG   0.9244   0.9790 
12    O3       0.2077   -5.6317    0.1121 O.co2   1  LIG  -0.8430  -0.9000 
13    Br1      5.0228   -3.7841    3.9502 Br      1  LIG  -0.1516  -0.1110 
14    H1       1.8833   -8.5187   -2.8631 H       1  LIG   0.0408   0.0000 
15    H2       0.9173   -7.0317   -2.7822 H       1  LIG   0.1226   0.0000 
16    H3       2.5519   -7.0151   -3.5308 H       1  LIG   0.0484   0.0000 
17    H4       5.1424   -5.7211   -0.6575 H       1  LIG   0.1293   0.1500 
18    H5       6.1549   -4.9236    1.4440 H       1  LIG   0.1224   0.1500 
19    H6       2.2388   -3.9738    2.9748 H       1  LIG   0.1675   0.1500 
20    O4       0.1777   -3.8094    1.4479 O.co2   1  LIG  -0.8055  -0.9000 
@<TRIPOS>BOND
1     1     2     1
2     1     14    1
3     1     15    1
4     1     16    1
5     2     3     2
6     2     4     1
7     4     5     1
8     5     10    ar
9     5     6     ar
10    6     7     ar
11    6     17    1
12    7     8     ar
13    7     18    1
14    8     9     ar
15    8     13    1
16    9     10    ar
17    9     19    1
18    10    11    1
19    11    12    2
20    11    20    1
@<TRIPOS>SUBSTRUCTURE
1   LIG    1    
 
########## Number      : 190
########## Name        : ZINC00001051
########## Description : AM1BCC_CHARGES =   0.0001 ORIGINAL_CHARGES =   0.0000

@<TRIPOS>MOLECULE
ZINC00001051
29    31    1     0     0    
SMALL
USER_CHARGES
****
****
@<TRIPOS>ATOM
1     C1       5.7629   -8.8827    0.0348 C.ar    1  LIG  -0.1026  -0.1500 
2     C2       5.7994   -9.4445    1.3060 C.ar    1  LIG  -0.2317  -0.1500 
3     C3       5.4980   -8.6305    2.3850 C.ar    1  LIG   0.3916   0.1600 
4     N1       5.1726   -7.3234    2.2777 N.ar    1  LIG  -0.6445  -0.6200 
5     C4       5.1546   -6.8022    1.0274 C.ar    1  LIG   0.3517   0.3962 
6     C5       5.4321   -7.5397   -0.1185 C.ar    1  LIG  -0.1981  -0.1500 
7     C6       4.7634   -5.3624    0.9251 C.2     1  LIG   0.4378   0.2776 
8     N2       4.1674   -4.9936   -0.1582 N.2     1  LIG  -0.5838  -0.6960 
9     C7       3.7494   -3.6141   -0.3000 C.3     1  LIG   0.0430   0.3070 
10    C8       2.5738   -3.3779    0.6146 C.2     1  LIG   0.6885   0.5690 
11    O1       1.4404   -3.1958    0.1678 O.2     1  LIG  -0.6078  -0.5700 
12    N3       2.8508   -3.2894    1.9603 N.am    1  LIG  -0.4736  -0.5470 
13    C9       4.0772   -3.5760    2.5926 C.ar    1  LIG   0.1038   0.1170 
14    C10      5.0442   -4.4608    2.0863 C.ar    1  LIG  -0.2022   0.0862 
15    C11      6.2786   -4.5904    2.7448 C.ar    1  LIG  -0.0332  -0.1500 
16    C12      6.5140   -3.8989    3.9326 C.ar    1  LIG  -0.0578   0.1110 
17    C13      5.5308   -3.0817    4.4804 C.ar    1  LIG  -0.0620  -0.1500 
18    C14      4.3151   -2.9271    3.8136 C.ar    1  LIG  -0.1797  -0.1500 
19    Br1      8.1718   -4.0973    4.8210 Br      1  LIG  -0.0783  -0.1110 
20    H1       2.1105   -2.9049    2.5403 H       1  LIG   0.3291   0.3700 
21    H2       5.9904   -9.4903   -0.8363 H       1  LIG   0.1433   0.1500 
22    H3       6.0540  -10.4887    1.4478 H       1  LIG   0.1467   0.1500 
23    H4       5.5097   -9.0216    3.3973 H       1  LIG   0.0274   0.1500 
24    H5       5.4025   -7.0985   -1.1089 H       1  LIG   0.1619   0.1500 
25    H6       4.5559   -2.8979   -0.1060 H       1  LIG   0.0714   0.0000 
26    H7       3.4235   -3.4457   -1.3323 H       1  LIG   0.1079   0.0000 
27    H8       7.0489   -5.2461    2.3449 H       1  LIG   0.1556   0.1500 
28    H9       5.6976   -2.5502    5.4135 H       1  LIG   0.1515   0.1500 
29    H10      3.5674   -2.2622    4.2414 H       1  LIG   0.1442   0.1500 
@<TRIPOS>BOND
1     1     6     ar
2     1     2     ar
3     1     21    1
4     2     3     ar
5     2     22    1
6     3     4     ar
7     3     23    1
8     4     5     ar
9     5     6     ar
10    5     7     1
11    6     24    1
12    7     14    1
13    7     8     2
14    8     9     1
15    9     10    1
16    9     25    1
17    9     26    1
18    10    11    2
19    10    12    am
20    12    13    1
21    12    20    1
22    13    18    ar
23    13    14    ar
24    14    15    ar
25    15    16    ar
26    15    27    1
27    16    17    ar
28    16    19    1
29    17    18    ar
30    17    28    1
31    18    29    1
@<TRIPOS>SUBSTRUCTURE
1   LIG    1    
 
########## Number      : 191
########## Name        : ZINC00001052
########## Description : AM1BCC_CHARGES =   0.0000 ORIGINAL_CHARGES =   0.0000

@<TRIPOS>MOLECULE
ZINC00001052
15    16    1     0     0    
SMALL
USER_CHARGES
****
****
@<TRIPOS>ATOM
1     C1      -1.3079   11.4592    8.4864 C.ar    1  LIG  -0.1305  -0.1500 
2     C2      -0.7329   10.7583    7.4514 C.ar    1  LIG   0.0222   0.1170 
3     C3       0.6087   10.4521    7.4066 C.ar    1  LIG   0.0414   0.0825 
4     C4       1.4675   10.8367    8.4132 C.ar    1  LIG  -0.0627  -0.1500 
5     C5       0.9221   11.5539    9.4882 C.ar    1  LIG  -0.0374   0.1110 
6     C6      -0.4591   11.8637    9.5247 C.ar    1  LIG   0.0503   0.1770 
7     Cl1     -1.1708   12.7457   10.8316 Cl      1  LIG  -0.0548  -0.1770 
8     Br1      2.1148   12.0803   10.8726 Br      1  LIG  -0.0455  -0.1110 
9     O1       0.9544    9.7411    6.2679 O.3     1  LIG  -0.2849  -0.2325 
10    C7      -0.2754    9.6227    5.5973 C.2     1  LIG   0.8198   0.7800 
11    O2      -0.3985    9.0467    4.5242 O.2     1  LIG  -0.5624  -0.5700 
12    N1      -1.2875   10.2366    6.3140 N.am    1  LIG  -0.4679  -0.5470 
13    H1      -2.2615   10.2909    6.0468 H       1  LIG   0.3688   0.3700 
14    H2      -2.3686   11.6845    8.4919 H       1  LIG   0.1655   0.1500 
15    H3       2.5223   10.5882    8.3641 H       1  LIG   0.1781   0.1500 
@<TRIPOS>BOND
1     1     6     ar
2     1     2     ar
3     1     14    1
4     2     12    1
5     2     3     ar
6     3     4     ar
7     3     9     1
8     4     5     ar
9     4     15    1
10    5     6     ar
11    5     8     1
12    6     7     1
13    9     10    1
14    10    11    2
15    10    12    am
16    12    13    1
@<TRIPOS>SUBSTRUCTURE
1   LIG    1    
 
########## Number      : 192
########## Name        : ZINC00001060
########## Description : AM1BCC_CHARGES =  -0.0001 ORIGINAL_CHARGES =  -0.0000

@<TRIPOS>MOLECULE
ZINC00001060
23    24    1     0     0    
SMALL
USER_CHARGES
****
****
@<TRIPOS>ATOM
1     C1       3.5055   -8.8776    0.3137 C.ar    1  LIG  -0.1086  -0.1500 
2     C2       4.1939   -7.9614   -0.4805 C.ar    1  LIG  -0.1318  -0.1500 
3     C3       3.7599   -6.6372   -0.5574 C.ar    1  LIG  -0.0952  -0.1500 
4     C4       2.6308   -6.2236    0.1620 C.ar    1  LIG  -0.1029   0.0284 
5     C5       1.9443   -7.1489    0.9596 C.ar    1  LIG  -0.0936  -0.1500 
6     C6       2.3822   -8.4720    1.0332 C.ar    1  LIG  -0.1325  -0.1500 
7     C7       2.1701   -4.8294    0.0809 C.2     1  LIG   0.2244   0.0716 
8     C8       1.2826   -4.3974   -0.8357 C.2     1  LIG  -0.2200   0.1244 
9     C9       0.9003   -2.9332   -0.7993 C.2     1  LIG   0.7144   0.7666 
10    O1       0.0946   -2.4899   -1.6141 O.2     1  LIG  -0.5227  -0.5700 
11    N1       1.4816   -2.1280    0.1681 N.2     1  LIG  -0.7220  -0.6610 
12    C10      2.3321   -2.6417    1.0128 C.2     1  LIG   0.8229   0.5500 
13    N2       2.6970   -3.9611    1.0044 N.pl3   1  LIG  -0.7281  -0.5500 
14    N3       2.9383   -1.9018    1.9879 N.pl3   1  LIG  -0.8873  -0.8500 
15    Br1      0.4848   -5.4626   -2.1498 Br      1  LIG  -0.0171  -0.1100 
16    H1       3.3615   -4.3266    1.6765 H       1  LIG   0.4583   0.4000 
17    H2       2.7376   -0.9125    2.0813 H       1  LIG   0.4322   0.4000 
18    H3       3.5978   -2.3088    2.6399 H       1  LIG   0.4009   0.4000 
19    H4       3.8444   -9.9080    0.3718 H       1  LIG   0.1381   0.1500 
20    H5       5.0688   -8.2788   -1.0408 H       1  LIG   0.1406   0.1500 
21    H6       4.3073   -5.9351   -1.1819 H       1  LIG   0.1451   0.1500 
22    H7       1.0661   -6.8486    1.5263 H       1  LIG   0.1445   0.1500 
23    H8       1.8467   -9.1869    1.6515 H       1  LIG   0.1403   0.1500 
@<TRIPOS>BOND
1     1     6     ar
2     1     2     ar
3     1     19    1
4     2     3     ar
5     2     20    1
6     3     4     ar
7     3     21    1
8     4     5     ar
9     4     7     1
10    5     6     ar
11    5     22    1
12    6     23    1
13    7     13    1
14    7     8     2
15    8     9     1
16    8     15    1
17    9     10    2
18    9     11    1
19    11    12    2
20    12    13    1
21    12    14    1
22    13    16    1
23    14    17    1
24    14    18    1
@<TRIPOS>SUBSTRUCTURE
1   LIG    1    
 
########## Number      : 193
########## Name        : ZINC00001061
########## Description : AM1BCC_CHARGES =  -0.0000 ORIGINAL_CHARGES =   0.0000

@<TRIPOS>MOLECULE
ZINC00001061
21    22    1     0     0    
SMALL
USER_CHARGES
****
****
@<TRIPOS>ATOM
1     C1       3.2138   -8.0157   -2.4408 C.3     1  LIG  -0.1533   0.1435 
2     C2       3.3008   -6.9545   -1.3877 C.ar    1  LIG   0.4214   0.1665 
3     C3       4.5179   -6.3789   -1.0786 C.ar    1  LIG  -0.2257  -0.1500 
4     C4       4.5456   -5.3988   -0.0943 C.ar    1  LIG  -0.0936  -0.1500 
5     C5       3.3683   -4.9986    0.5741 C.ar    1  LIG  -0.0929   0.0000 
6     C6       3.3200   -4.0056    1.5885 C.ar    1  LIG  -0.0491   0.1110 
7     C7       2.1166   -3.6610    2.2064 C.ar    1  LIG  -0.0374  -0.1500 
8     C8       0.9474   -4.3013    1.8212 C.ar    1  LIG  -0.1451   0.1110 
9     C9       0.9842   -5.2795    0.8243 C.ar    1  LIG   0.1488   0.0825 
10    C10      2.1729   -5.6458    0.1878 C.ar    1  LIG   0.3838   0.3100 
11    N1       2.1517   -6.5979   -0.7699 N.ar    1  LIG  -0.6276  -0.6200 
12    O1      -0.1710   -5.9186    0.4371 O.3     1  LIG  -0.4524  -0.5325 
13    Br1     -0.6788   -3.8222    2.6698 Br      1  LIG  -0.0738  -0.1110 
14    Br2      4.8737   -3.0742    2.1818 Br      1  LIG  -0.0789  -0.1110 
15    H1      -0.9066   -5.5607    0.9637 H       1  LIG   0.4327   0.4500 
16    H2       3.8321   -8.8754   -2.1642 H       1  LIG   0.0528   0.0000 
17    H3       2.1824   -8.3629   -2.5606 H       1  LIG   0.0697   0.0000 
18    H4       3.5544   -7.6225   -3.4037 H       1  LIG   0.0521   0.0000 
19    H5       5.4305   -6.6766   -1.5839 H       1  LIG   0.1486   0.1500 
20    H6       5.5088   -4.9533    0.1402 H       1  LIG   0.1569   0.1500 
21    H7       2.0937   -2.8989    2.9818 H       1  LIG   0.1630   0.1500 
@<TRIPOS>BOND
1     1     2     1
2     1     16    1
3     1     17    1
4     1     18    1
5     2     11    ar
6     2     3     ar
7     3     4     ar
8     3     19    1
9     4     5     ar
10    4     20    1
11    5     10    ar
12    5     6     ar
13    6     7     ar
14    6     14    1
15    7     8     ar
16    7     21    1
17    8     9     ar
18    8     13    1
19    9     10    ar
20    9     12    1
21    10    11    ar
22    12    15    1
@<TRIPOS>SUBSTRUCTURE
1   LIG    1    
 
########## Number      : 194
########## Name        : ZINC00001064
########## Description : AM1BCC_CHARGES =   0.0001 ORIGINAL_CHARGES =  -0.0000

@<TRIPOS>MOLECULE
ZINC00001064
18    19    1     0     0    
SMALL
USER_CHARGES
****
****
@<TRIPOS>ATOM
1     C1       2.9163   -7.4087   -2.5730 C.ar    1  LIG  -0.2240  -0.1500 
2     C2       2.0140   -7.7318   -1.5687 C.ar    1  LIG  -0.0952  -0.1500 
3     C3       1.5739   -6.7624   -0.6388 C.ar    1  LIG  -0.0872   0.0000 
4     C4       0.6545   -7.0202    0.4125 C.ar    1  LIG  -0.0520   0.1110 
5     C5       0.2639   -6.0119    1.2956 C.ar    1  LIG  -0.0343  -0.1500 
6     C6       0.7843   -4.7348    1.1423 C.ar    1  LIG  -0.1462   0.1110 
7     C7       1.6896   -4.4697    0.1116 C.ar    1  LIG   0.1514   0.0825 
8     C8       2.0997   -5.4573   -0.7878 C.ar    1  LIG   0.3736   0.3100 
9     N1       2.9773   -5.1469   -1.7661 N.ar    1  LIG  -0.6201  -0.6200 
10    C9       3.3648   -6.1100   -2.6278 C.ar    1  LIG   0.4006   0.1600 
11    O1       2.2097   -3.2058   -0.0464 O.3     1  LIG  -0.4521  -0.5325 
12    Br1      0.2436   -3.3770    2.3499 Br      1  LIG  -0.0723  -0.1110 
13    Br2     -0.1122   -8.7415    0.7008 Br      1  LIG  -0.0774  -0.1110 
14    H1       1.8347   -2.6348    0.6463 H       1  LIG   0.4335   0.4500 
15    H2       3.2534   -8.1521   -3.2857 H       1  LIG   0.1504   0.1500 
16    H3       1.6598   -8.7584   -1.5259 H       1  LIG   0.1577   0.1500 
17    H4      -0.4411   -6.2234    2.0962 H       1  LIG   0.1634   0.1500 
18    H5       4.0707   -5.7928   -3.3882 H       1  LIG   0.0303   0.1500 
@<TRIPOS>BOND
1     1     10    ar
2     1     2     ar
3     1     15    1
4     2     3     ar
5     2     16    1
6     3     8     ar
7     3     4     ar
8     4     5     ar
9     4     13    1
10    5     6     ar
11    5     17    1
12    6     7     ar
13    6     12    1
14    7     8     ar
15    7     11    1
16    8     9     ar
17    9     10    ar
18    10    18    1
19    11    14    1
@<TRIPOS>SUBSTRUCTURE
1   LIG    1    
 
########## Number      : 195
########## Name        : ZINC00001070
########## Description : AM1BCC_CHARGES =   0.9996 ORIGINAL_CHARGES =   1.0000

@<TRIPOS>MOLECULE
ZINC00001070
32    33    1     0     0    
SMALL
USER_CHARGES
****
****
@<TRIPOS>ATOM
1     C1      -5.6564    4.8968    2.1779 C.3     1  LIG   0.0816   0.5030 
2     C2      -4.6851    4.3217    4.3867 C.3     1  LIG   0.0820   0.5030 
3     C3      -4.0780    2.9724    2.3373 C.3     1  LIG   0.0995   0.5030 
4     C4      -2.6677    2.5764    2.7723 C.3     1  LIG  -0.0006   0.1810 
5     C5      -2.2185    1.3151    2.1059 C.2     1  LIG  -0.2241  -0.1810 
6     C6      -2.3234    0.0382    2.6212 C.2     1  LIG  -0.0532  -0.3016 
7     N1      -1.8027   -0.8404    1.7109 N.pl3   1  LIG  -0.1645   0.0332 
8     C7      -1.3568   -0.1646    0.5994 C.ar    1  LIG  -0.0829  -0.1516 
9     C8      -1.6028    1.1927    0.8174 C.ar    1  LIG  -0.0485   0.0000 
10    C9      -1.2342    2.1137   -0.1859 C.ar    1  LIG  -0.1510  -0.1500 
11    C10     -0.6383    1.6361   -1.3566 C.ar    1  LIG   0.1281   0.0825 
12    C11     -0.4021    0.2785   -1.5520 C.ar    1  LIG  -0.1804  -0.1500 
13    C12     -0.7597   -0.6499   -0.5707 C.ar    1  LIG  -0.0825  -0.1500 
14    O1      -0.2922    2.5522   -2.3121 O.3     1  LIG  -0.4980  -0.5325 
15    H1      -1.7527   -1.8422    1.8352 H       1  LIG   0.3165   0.2700 
16    H2       0.1106    2.0816   -3.0617 H       1  LIG   0.4312   0.4500 
17    H3      -5.4108    4.9682    1.1151 H       1  LIG   0.1070   0.0000 
18    H4      -6.5092    4.2326    2.3416 H       1  LIG   0.1048   0.0000 
19    H5      -5.8521    5.8949    2.5786 H       1  LIG   0.1028   0.0000 
20    H6      -3.7479    4.0558    4.8793 H       1  LIG   0.1064   0.0000 
21    H7      -4.9782    5.3304    4.6906 H       1  LIG   0.1014   0.0000 
22    H8      -5.4735    3.6006    4.6180 H       1  LIG   0.1032   0.0000 
23    H9      -4.8334    2.2490    2.6656 H       1  LIG   0.1025   0.0000 
24    H10     -4.1263    3.0567    1.2452 H       1  LIG   0.1133   0.0000 
25    H11     -1.9601    3.3815    2.5384 H       1  LIG   0.0678   0.0000 
26    H12     -2.6277    2.4330    3.8582 H       1  LIG   0.0581   0.0000 
27    H13     -2.7237   -0.3211    3.5595 H       1  LIG   0.1723   0.1500 
28    H14     -1.4090    3.1775   -0.0542 H       1  LIG   0.1379   0.1500 
29    H15      0.0624   -0.0769   -2.4681 H       1  LIG   0.1496   0.1500 
30    H16     -0.5791   -1.7101   -0.7151 H       1  LIG   0.1506   0.1500 
31    N2      -4.4607    4.3283    2.8981 N.4     1  LIG  -0.6814  -0.9590 
32    H17     -3.6797    4.9719    2.7113 H       1  LIG   0.4501   0.4500 
@<TRIPOS>BOND
1     1     17    1
2     1     18    1
3     1     19    1
4     1     31    1
5     2     20    1
6     2     21    1
7     2     22    1
8     2     31    1
9     3     4     1
10    3     23    1
11    3     24    1
12    3     31    1
13    4     5     1
14    4     25    1
15    4     26    1
16    5     9     1
17    5     6     2
18    6     7     1
19    6     27    1
20    7     8     1
21    7     15    1
22    8     13    ar
23    8     9     ar
24    9     10    ar
25    10    11    ar
26    10    28    1
27    11    12    ar
28    11    14    1
29    12    13    ar
30    12    29    1
31    13    30    1
32    14    16    1
33    31    32    1
@<TRIPOS>SUBSTRUCTURE
1   LIG    1    
 
########## Number      : 196
########## Name        : ZINC00001075
########## Description : AM1BCC_CHARGES =  -0.0002 ORIGINAL_CHARGES =  -0.0000

@<TRIPOS>MOLECULE
ZINC00001075
32    32    1     0     0    
SMALL
USER_CHARGES
****
****
@<TRIPOS>ATOM
1     C1       5.3131   -9.3637   -1.0395 C.3     1  LIG  -0.1790   0.0610 
2     C2       4.4677   -8.4335   -0.2062 C.2     1  LIG   0.6655   0.5690 
3     O1       4.4283   -8.5438    1.0147 O.2     1  LIG  -0.5883  -0.5700 
4     N1       3.8037   -7.5093   -1.0013 N.am    1  LIG  -0.4742  -0.5470 
5     C3       2.9242   -6.4857   -0.5784 C.ar    1  LIG   0.0631   0.1170 
6     C4       2.5683   -6.2552    0.7539 C.ar    1  LIG  -0.1482  -0.1500 
7     C5       1.6908   -5.2165    1.0821 C.ar    1  LIG  -0.1175  -0.1500 
8     C6       1.1860   -4.3847    0.0850 C.ar    1  LIG   0.0705   0.0825 
9     C7       1.4994   -4.6298   -1.2490 C.ar    1  LIG  -0.1167  -0.1500 
10    C8       2.3755   -5.6668   -1.5766 C.ar    1  LIG  -0.1792  -0.1500 
11    O2       0.2765   -3.4161    0.4029 O.3     1  LIG  -0.3472  -0.3625 
12    C9       0.7999   -2.0992    0.6933 C.3     1  LIG   0.1543   0.2800 
13    C10     -0.4476   -1.2544    1.0048 C.3     1  LIG  -0.0874   0.0000 
14    C11      1.7081   -2.0851    1.9315 C.3     1  LIG  -0.1192   0.0000 
15    C12      1.5149   -1.4697   -0.5112 C.3     1  LIG  -0.1188   0.0000 
16    H1       3.9627   -7.5629   -2.0043 H       1  LIG   0.3139   0.3700 
17    H2       5.8078  -10.0936   -0.3926 H       1  LIG   0.0823   0.0000 
18    H3       4.6832   -9.8973   -1.7570 H       1  LIG   0.0614   0.0000 
19    H4       6.0753   -8.7915   -1.5761 H       1  LIG   0.0622   0.0000 
20    H5       2.9436   -6.8663    1.5668 H       1  LIG   0.1753   0.1500 
21    H6       1.4066   -5.0667    2.1201 H       1  LIG   0.1462   0.1500 
22    H7       1.0678   -4.0221   -2.0391 H       1  LIG   0.1429   0.1500 
23    H8       2.6181   -5.8312   -2.6241 H       1  LIG   0.1281   0.1500 
24    H9      -0.1896   -0.2177    1.2456 H       1  LIG   0.0405   0.0000 
25    H10     -1.1374   -1.2499    0.1526 H       1  LIG   0.0482   0.0000 
26    H11     -1.0031   -1.6776    1.8501 H       1  LIG   0.0495   0.0000 
27    H12      1.9591   -1.0614    2.2302 H       1  LIG   0.0429   0.0000 
28    H13      1.2239   -2.5828    2.7791 H       1  LIG   0.0472   0.0000 
29    H14      2.6508   -2.6102    1.7446 H       1  LIG   0.0473   0.0000 
30    H15      1.7573   -0.4175   -0.3256 H       1  LIG   0.0432   0.0000 
31    H16      2.4545   -1.9856   -0.7356 H       1  LIG   0.0458   0.0000 
32    H17      0.8924   -1.5267   -1.4109 H       1  LIG   0.0452   0.0000 
@<TRIPOS>BOND
1     1     2     1
2     1     17    1
3     1     18    1
4     1     19    1
5     2     3     2
6     2     4     am
7     4     5     1
8     4     16    1
9     5     10    ar
10    5     6     ar
11    6     7     ar
12    6     20    1
13    7     8     ar
14    7     21    1
15    8     9     ar
16    8     11    1
17    9     10    ar
18    9     22    1
19    10    23    1
20    11    12    1
21    12    13    1
22    12    14    1
23    12    15    1
24    13    24    1
25    13    25    1
26    13    26    1
27    14    27    1
28    14    28    1
29    14    29    1
30    15    30    1
31    15    31    1
32    15    32    1
@<TRIPOS>SUBSTRUCTURE
1   LIG    1    
 
########## Number      : 197
########## Name        : ZINC00001084
########## Description : AM1BCC_CHARGES =   0.0000 ORIGINAL_CHARGES =  -0.0000

@<TRIPOS>MOLECULE
ZINC00001084
24    25    1     0     0    
SMALL
USER_CHARGES
****
****
@<TRIPOS>ATOM
1     C1       3.4736    9.1720   10.8181 C.3     1  LIG   0.0223   0.2556 
2     N1       2.5587    9.0361    9.7132 N.pl3   1  LIG  -0.1499   0.0476 
3     C2       2.3583    7.8997    8.9752 C.2     1  LIG   0.4449   0.0365 
4     N2       1.4591    8.0813    8.0304 N.2     1  LIG  -0.6855  -0.5653 
5     C3       1.0742    9.3856    8.1757 C.2     1  LIG   0.4868   0.2902 
6     C4       1.7345   10.0016    9.2052 C.2     1  LIG  -0.3534  -0.2366 
7     C5       1.5277   11.3656    9.5805 C.2     1  LIG   0.7643   0.7150 
8     O1       2.1242   11.9102   10.5053 O.2     1  LIG  -0.6295  -0.5700 
9     N3       0.5607   11.9979    8.7604 N.am    1  LIG  -0.4844  -0.4201 
10    C6      -0.1592   11.4021    7.6718 C.2     1  LIG   0.8144   0.6900 
11    O2      -0.9870   12.0422    7.0140 O.2     1  LIG  -0.6375  -0.5700 
12    N4       0.1354   10.0482    7.4013 N.am    1  LIG  -0.4178  -0.4231 
13    C7      -0.5382    9.3455    6.3176 C.3     1  LIG   0.0905   0.3001 
14    C8       0.2516   13.3959    9.0341 C.3     1  LIG   0.0807   0.3001 
15    H1       3.9912    8.2237   10.9838 H       1  LIG   0.0567   0.0000 
16    H2       4.2004    9.9506   10.5737 H       1  LIG   0.0721   0.0000 
17    H3       2.9030    9.4411   11.7105 H       1  LIG   0.0751   0.0000 
18    H4       2.8894    6.9771    9.1678 H       1  LIG   0.0704   0.1500 
19    H5      -1.2484    9.9933    5.7974 H       1  LIG   0.0839   0.0000 
20    H6       0.2107    8.9962    5.6000 H       1  LIG   0.0527   0.0000 
21    H7      -1.0802    8.4893    6.7311 H       1  LIG   0.0533   0.0000 
22    H8       0.8282   13.7958    9.8713 H       1  LIG   0.0808   0.0000 
23    H9       0.4637   13.9857    8.1365 H       1  LIG   0.0546   0.0000 
24    H10     -0.8164   13.4830    9.2582 H       1  LIG   0.0545   0.0000 
@<TRIPOS>BOND
1     1     2     1
2     1     15    1
3     1     16    1
4     1     17    1
5     2     6     1
6     2     3     1
7     3     4     2
8     3     18    1
9     4     5     1
10    5     12    1
11    5     6     2
12    6     7     1
13    7     8     2
14    7     9     am
15    9     10    am
16    9     14    1
17    10    11    2
18    10    12    am
19    12    13    1
20    13    19    1
21    13    20    1
22    13    21    1
23    14    22    1
24    14    23    1
25    14    24    1
@<TRIPOS>SUBSTRUCTURE
1   LIG    1    
 
########## Number      : 198
########## Name        : ZINC00001085
########## Description : AM1BCC_CHARGES =   0.0003 ORIGINAL_CHARGES =   0.0000

@<TRIPOS>MOLECULE
ZINC00001085
35    37    1     0     0    
SMALL
USER_CHARGES
****
****
@<TRIPOS>ATOM
1     C1       2.6614   -9.8457   -2.8622 C.3     1  LIG  -0.1301   0.0000 
2     C2       1.8922   -9.0526   -3.9120 C.3     1  LIG   0.1782   0.2800 
3     C3       0.3833   -9.2503   -3.8280 C.3     1  LIG  -0.1301   0.0000 
4     O1       2.2548   -7.6504   -3.9031 O.3     1  LIG  -0.4546  -0.4300 
5     C4       2.0038   -6.8562   -2.8212 C.2     1  LIG   0.7579   0.7800 
6     O2       1.4666   -7.2425   -1.7925 O.2     1  LIG  -0.5845  -0.5700 
7     N1       2.4566   -5.5853   -3.1059 N.am    1  LIG  -0.4534  -0.5470 
8     C5       2.4100   -4.4348   -2.2868 C.ar    1  LIG   0.0617   0.1170 
9     C6       1.8672   -4.4170   -0.9955 C.ar    1  LIG  -0.1403  -0.1500 
10    C7       1.8451   -3.2468   -0.2219 C.ar    1  LIG  -0.1067  -0.1500 
11    C8       2.3880   -2.0991   -0.7950 C.ar    1  LIG  -0.0932  -0.1516 
12    C9       2.9355   -2.0738   -2.0707 C.ar    1  LIG   0.0931   0.2272 
13    C10      2.9500   -3.2546   -2.8328 C.ar    1  LIG  -0.1336  -0.1500 
14    N2       3.3960   -0.8155   -2.3812 N.2     1  LIG  -0.5712  -0.5653 
15    C11      3.1395   -0.0762   -1.3204 C.2     1  LIG   0.3875   0.1865 
16    N3       2.5295   -0.8153   -0.3373 N.pl3   1  LIG  -0.2553   0.0332 
17    C12      3.4579    1.3595   -1.1863 C.2     1  LIG   0.3077   0.2272 
18    C13      4.0718    2.0907   -2.1837 C.2     1  LIG  -0.2001  -0.1100 
19    S1       4.2770    3.7142   -1.6668 S.3     1  LIG  -0.0612  -0.0800 
20    C14      3.5376    3.3076   -0.1734 C.2     1  LIG   0.3680   0.2281 
21    N4       3.1516    2.0589   -0.0327 N.2     1  LIG  -0.6273  -0.5653 
22    H1       2.8760   -5.4697   -4.0239 H       1  LIG   0.3372   0.3700 
23    H2       2.2375   -0.4673    0.5661 H       1  LIG   0.3216   0.2700 
24    H3       3.7332   -9.6324   -2.9309 H       1  LIG   0.0459   0.0000 
25    H4       2.3491   -9.5904   -1.8453 H       1  LIG   0.0727   0.0000 
26    H5       2.5090  -10.9211   -2.9987 H       1  LIG   0.0448   0.0000 
27    H6       2.2145   -9.4147   -4.8956 H       1  LIG   0.0704   0.0000 
28    H7      -0.1265   -8.6236   -4.5673 H       1  LIG   0.0457   0.0000 
29    H8       0.1174  -10.2960   -4.0126 H       1  LIG   0.0449   0.0000 
30    H9      -0.0126   -8.9732   -2.8466 H       1  LIG   0.0727   0.0000 
31    H10      1.4427   -5.3073   -0.5432 H       1  LIG   0.1765   0.1500 
32    H11      1.4226   -3.2429    0.7770 H       1  LIG   0.1416   0.1500 
33    H12      3.3772   -3.2399   -3.8313 H       1  LIG   0.1485   0.1500 
34    H13      4.4016    1.7669   -3.1612 H       1  LIG   0.2058   0.1500 
35    H14      3.3994    4.0441    0.6065 H       1  LIG   0.0595   0.1500 
@<TRIPOS>BOND
1     1     2     1
2     1     24    1
3     1     25    1
4     1     26    1
5     2     3     1
6     2     4     1
7     2     27    1
8     3     28    1
9     3     29    1
10    3     30    1
11    4     5     1
12    5     6     2
13    5     7     am
14    7     8     1
15    7     22    1
16    8     13    ar
17    8     9     ar
18    9     10    ar
19    9     31    1
20    10    11    ar
21    10    32    1
22    11    16    1
23    11    12    ar
24    12    13    ar
25    12    14    1
26    13    33    1
27    14    15    2
28    15    16    1
29    15    17    1
30    16    23    1
31    17    21    1
32    17    18    2
33    18    19    1
34    18    34    1
35    19    20    1
36    20    21    2
37    20    35    1
@<TRIPOS>SUBSTRUCTURE
1   LIG    1    
 
########## Number      : 199
########## Name        : ZINC00001086
########## Description : AM1BCC_CHARGES =  -1.9999 ORIGINAL_CHARGES =  -2.0000

@<TRIPOS>MOLECULE
ZINC00001086
28    28    1     0     0    
SMALL
USER_CHARGES
****
****
@<TRIPOS>ATOM
1     C1       3.2896   -2.3655    0.5249 C.3     1  LIG  -0.0759   0.0000 
2     C2       2.9944   -1.2330   -0.4766 C.3     1  LIG  -0.0011   0.0000 
3     C3       3.3428    0.1410    0.1673 C.3     1  LIG  -0.1618  -0.1060 
4     C4       2.4730    1.1850   -0.5585 C.3     1  LIG  -0.0703   0.0000 
5     C5       1.4318    0.3987   -1.3543 C.3     1  LIG  -0.0651   0.0000 
6     C6       1.4696   -1.0373   -0.7962 C.3     1  LIG  -0.1517  -0.1060 
7     C7       0.5280   -1.1428    0.4183 C.3     1  LIG  -0.0575   0.0000 
8     C8       0.9183   -2.0811   -1.8177 C.2     1  LIG   0.9206   0.9060 
9     O1       1.0469   -3.2942   -1.4833 O.co2   1  LIG  -0.8708  -0.9000 
10    C9       4.8553    0.4487    0.0760 C.2     1  LIG   0.9142   0.9060 
11    O2       5.5371   -0.0378    1.0260 O.co2   1  LIG  -0.8799  -0.9000 
12    C10      3.8134   -1.5124   -1.7630 C.3     1  LIG  -0.0771   0.0000 
13    H1       4.3649   -2.4535    0.7156 H       1  LIG   0.0329   0.0000 
14    H2       2.8086   -2.1923    1.4930 H       1  LIG  -0.0011   0.0000 
15    H3       2.9543   -3.3374    0.1524 H       1  LIG   0.0409   0.0000 
16    H4       3.0428    0.1950    1.2297 H       1  LIG   0.0190   0.0000 
17    H5       1.9686    1.8143    0.1854 H       1  LIG  -0.0134   0.0000 
18    H6       3.0167    1.8672   -1.2180 H       1  LIG   0.0569   0.0000 
19    H7       0.4408    0.8596   -1.2719 H       1  LIG  -0.0069   0.0000 
20    H8       1.7038    0.4303   -2.4162 H       1  LIG   0.0591   0.0000 
21    H9      -0.5087   -0.9356    0.1257 H       1  LIG  -0.0029   0.0000 
22    H10      0.5359   -2.1456    0.8591 H       1  LIG   0.0348   0.0000 
23    H11      0.7895   -0.4315    1.2081 H       1  LIG  -0.0024   0.0000 
24    H12      4.8816   -1.6197   -1.5431 H       1  LIG   0.0275   0.0000 
25    H13      3.5082   -2.4503   -2.2386 H       1  LIG   0.0331   0.0000 
26    H14      3.7087   -0.7149   -2.5050 H       1  LIG   0.0352   0.0000 
27    O3       0.3732   -1.6085   -2.8558 O.co2   1  LIG  -0.8678  -0.9000 
28    O4       5.2465    1.1445   -0.9009 O.co2   1  LIG  -0.8684  -0.9000 
@<TRIPOS>BOND
1     1     2     1
2     1     13    1
3     1     14    1
4     1     15    1
5     2     6     1
6     2     3     1
7     2     12    1
8     3     4     1
9     3     10    1
10    3     16    1
11    4     5     1
12    4     17    1
13    4     18    1
14    5     6     1
15    5     19    1
16    5     20    1
17    6     7     1
18    6     8     1
19    7     21    1
20    7     22    1
21    7     23    1
22    8     9     2
23    8     27    1
24    10    11    2
25    10    28    1
26    12    24    1
27    12    25    1
28    12    26    1
@<TRIPOS>SUBSTRUCTURE
1   LIG    1    
 
########## Number      : 200
########## Name        : ZINC00001087
########## Description : AM1BCC_CHARGES =   0.0002 ORIGINAL_CHARGES =   0.0000

@<TRIPOS>MOLECULE
ZINC00001087
42    46    1     0     0    
SMALL
USER_CHARGES
****
****
@<TRIPOS>ATOM
1     C1      -3.1788    0.8374   -1.0147 C.3     1  LIG  -0.0944   0.0000 
2     C2      -2.4952    0.3973    0.2751 C.3     1  LIG  -0.0982   0.0000 
3     C3      -0.9569    0.5623    0.2875 C.3     1  LIG   0.1213   0.4792 
4     C4      -0.5156    2.0037    0.1772 C.2     1  LIG   0.0231  -0.1382 
5     C5      -0.2597    2.5938   -1.1287 C.2     1  LIG  -0.1535  -0.1500 
6     C6       0.1013    3.8776   -1.2006 C.2     1  LIG  -0.0165   0.0806 
7     N1       0.2357    4.6580   -0.0650 N.am    1  LIG  -0.3523  -0.4691 
8     C7       0.0124    4.1933    1.2158 C.2     1  LIG   0.7152   0.6156 
9     O1       0.1165    4.8776    2.2304 O.2     1  LIG  -0.6387  -0.5700 
10    C8      -0.3864    2.7448    1.2943 C.2     1  LIG  -0.2414  -0.1238 
11    C9      -0.6311    2.1541    2.6405 C.3     1  LIG   0.1846   0.4182 
12    O2      -0.4082    0.7274    2.6864 O.3     1  LIG  -0.3909  -0.4300 
13    C10     -0.4298   -0.0598    1.5843 C.2     1  LIG   0.6874   0.6590 
14    O3      -0.0868   -1.2393    1.6461 O.2     1  LIG  -0.5787  -0.5700 
15    C11      0.6369    6.0351   -0.4114 C.3     1  LIG   0.1458   0.4436 
16    C12      0.7240    5.9743   -1.9014 C.ar    1  LIG  -0.2226  -0.1435 
17    C13      0.4078    4.7031   -2.3606 C.ar    1  LIG   0.4550   0.3384 
18    N2       0.3885    4.3119   -3.6421 N.ar    1  LIG  -0.6102  -0.6200 
19    C14      0.7097    5.2565   -4.5491 C.ar    1  LIG   0.3906   0.3100 
20    C15      0.7137    4.9310   -5.9007 C.ar    1  LIG  -0.1595  -0.1500 
21    C16      1.0389    5.8719   -6.8810 C.ar    1  LIG  -0.1205  -0.1500 
22    C17      1.3698    7.1716   -6.5167 C.ar    1  LIG  -0.1171  -0.1500 
23    C18      1.3756    7.5310   -5.1714 C.ar    1  LIG  -0.1137  -0.1500 
24    C19      1.0497    6.5899   -4.1818 C.ar    1  LIG  -0.1357   0.0000 
25    C20      1.0523    6.9418   -2.8218 C.ar    1  LIG  -0.0558  -0.1500 
26    O4      -0.4015   -0.1882   -0.7909 O.3     1  LIG  -0.5739  -0.6800 
27    H1      -0.6829   -1.1140   -0.6870 H       1  LIG   0.4321   0.4000 
28    H2      -4.2467    0.5990   -0.9690 H       1  LIG   0.0433   0.0000 
29    H3      -3.0915    1.9169   -1.1670 H       1  LIG   0.0442   0.0000 
30    H4      -2.7598    0.3253   -1.8861 H       1  LIG   0.0517   0.0000 
31    H5      -2.9469    0.9357    1.1178 H       1  LIG   0.0568   0.0000 
32    H6      -2.7390   -0.6633    0.4252 H       1  LIG   0.0617   0.0000 
33    H7      -0.3700    1.9916   -2.0238 H       1  LIG   0.1908   0.1500 
34    H8       0.0548    2.5821    3.3788 H       1  LIG   0.1115   0.0000 
35    H9      -1.6537    2.3528    2.9777 H       1  LIG   0.0623   0.0000 
36    H10     -0.1334    6.7280   -0.0601 H       1  LIG   0.0857   0.0000 
37    H11      1.5995    6.2532    0.0606 H       1  LIG   0.0874   0.0000 
38    H12      0.4581    3.9196   -6.2113 H       1  LIG   0.1553   0.1500 
39    H13      1.0327    5.5857   -7.9290 H       1  LIG   0.1409   0.1500 
40    H14      1.6228    7.9040   -7.2777 H       1  LIG   0.1399   0.1500 
41    H15      1.6366    8.5519   -4.9011 H       1  LIG   0.1383   0.1500 
42    H16      1.3050    7.9468   -2.4977 H       1  LIG   0.1489   0.1500 
@<TRIPOS>BOND
1     1     2     1
2     1     28    1
3     1     29    1
4     1     30    1
5     2     3     1
6     2     31    1
7     2     32    1
8     3     13    1
9     3     4     1
10    3     26    1
11    4     10    2
12    4     5     1
13    5     6     2
14    5     33    1
15    6     17    1
16    6     7     1
17    7     8     am
18    7     15    1
19    8     9     2
20    8     10    1
21    10    11    1
22    11    12    1
23    11    34    1
24    11    35    1
25    12    13    1
26    13    14    2
27    15    16    1
28    15    36    1
29    15    37    1
30    16    25    ar
31    16    17    ar
32    17    18    ar
33    18    19    ar
34    19    24    ar
35    19    20    ar
36    20    21    ar
37    20    38    1
38    21    22    ar
39    21    39    1
40    22    23    ar
41    22    40    1
42    23    24    ar
43    23    41    1
44    24    25    ar
45    25    42    1
46    26    27    1
@<TRIPOS>SUBSTRUCTURE
1   LIG    1    
 
########## Number      : 201
########## Name        : ZINC00001090
########## Description : AM1BCC_CHARGES =  -0.0001 ORIGINAL_CHARGES =   0.0000

@<TRIPOS>MOLECULE
ZINC00001090
26    27    1     0     0    
SMALL
USER_CHARGES
****
****
@<TRIPOS>ATOM
1     C1       4.0224   -9.4810   -0.0297 C.3     1  LIG   0.0886   0.3001 
2     N1       3.1150   -8.5175   -0.6058 N.am    1  LIG  -0.5561  -0.7301 
3     C2       3.3165   -7.1560   -0.5579 C.2     1  LIG   0.7397   0.7800 
4     O1       4.2715   -6.5941   -0.0319 O.2     1  LIG  -0.5628  -0.5700 
5     O2       2.2606   -6.5131   -1.1984 O.3     1  LIG  -0.3791  -0.2325 
6     C3       2.3757   -5.1141   -1.2137 C.ar    1  LIG   0.1294   0.0825 
7     C4       3.1234   -4.5344   -2.2410 C.ar    1  LIG  -0.1221  -0.1500 
8     C5       3.2329   -3.1506   -2.3022 C.ar    1  LIG  -0.1187  -0.1500 
9     C6       2.5892   -2.3560   -1.3512 C.ar    1  LIG  -0.1170  -0.1500 
10    C7       1.8189   -2.9319   -0.3249 C.ar    1  LIG  -0.0301   0.0000 
11    C8       1.6979   -4.3398   -0.2480 C.ar    1  LIG  -0.0321   0.0000 
12    C9       0.9124   -4.8969    0.7830 C.ar    1  LIG  -0.1051  -0.1500 
13    C10      0.2682   -4.0833    1.7157 C.ar    1  LIG  -0.1276  -0.1500 
14    C11      0.3949   -2.7011    1.6366 C.ar    1  LIG  -0.1235  -0.1500 
15    C12      1.1642   -2.1288    0.6236 C.ar    1  LIG  -0.1191  -0.1500 
16    H1       2.2791   -8.8570   -1.0696 H       1  LIG   0.3308   0.3700 
17    H2       3.4843  -10.0374    0.7415 H       1  LIG   0.0294   0.0000 
18    H3       4.3359  -10.1688   -0.8188 H       1  LIG   0.0383   0.0000 
19    H4       4.8973   -8.9940    0.4072 H       1  LIG   0.0786   0.0000 
20    H5       3.6189   -5.1529   -2.9833 H       1  LIG   0.1474   0.1500 
21    H6       3.8174   -2.6855   -3.0909 H       1  LIG   0.1370   0.1500 
22    H7       2.6906   -1.2746   -1.4220 H       1  LIG   0.1351   0.1500 
23    H8       0.7954   -5.9749    0.8700 H       1  LIG   0.1394   0.1500 
24    H9      -0.3314   -4.5305    2.5034 H       1  LIG   0.1332   0.1500 
25    H10     -0.1057   -2.0665    2.3623 H       1  LIG   0.1328   0.1500 
26    H11      1.2471   -1.0447    0.5801 H       1  LIG   0.1335   0.1500 
@<TRIPOS>BOND
1     1     2     1
2     1     17    1
3     1     18    1
4     1     19    1
5     2     3     am
6     2     16    1
7     3     4     2
8     3     5     1
9     5     6     1
10    6     11    ar
11    6     7     ar
12    7     8     ar
13    7     20    1
14    8     9     ar
15    8     21    1
16    9     10    ar
17    9     22    1
18    10    15    ar
19    10    11    ar
20    11    12    ar
21    12    13    ar
22    12    23    1
23    13    14    ar
24    13    24    1
25    14    15    ar
26    14    25    1
27    15    26    1
@<TRIPOS>SUBSTRUCTURE
1   LIG    1    
 
########## Number      : 202
########## Name        : ZINC00001092
########## Description : AM1BCC_CHARGES =  -0.0001 ORIGINAL_CHARGES =  -0.0000

@<TRIPOS>MOLECULE
ZINC00001092
34    34    1     0     0    
SMALL
USER_CHARGES
****
****
@<TRIPOS>ATOM
1     C1       7.4329   -7.6629   -0.7659 C.3     1  LIG  -0.0977   0.0000 
2     C2       6.0461   -7.6969   -0.1567 C.3     1  LIG   0.1525   0.2800 
3     O1       5.2983   -6.6110   -0.6794 O.3     1  LIG  -0.4708  -0.5512 
4     P1       3.6764   -6.5235   -0.5277 P.3     1  LIG   0.7839   1.4677 
5     S1       2.7162   -7.9438   -1.4803 S.2     1  LIG  -0.5546  -0.6773 
6     O2       3.5051   -6.5230    1.0948 O.3     1  LIG  -0.5073  -0.5512 
7     C3       3.3092   -7.7156    1.8389 C.3     1  LIG   0.1404   0.2800 
8     C4       3.6597   -7.4417    3.2869 C.3     1  LIG  -0.1013   0.0000 
9     S2       3.2155   -4.5289   -1.0957 S.3     1  LIG  -0.4129  -0.4780 
10    C5       1.4848   -4.3027   -0.6124 C.3     1  LIG   0.1350   0.4600 
11    S3       1.1426   -2.6004   -0.0699 S.3     1  LIG   0.0769  -0.3315 
12    C6       2.0281   -2.5666    1.4838 C.ar    1  LIG  -0.0499   0.1015 
13    C7       1.7305   -3.4645    2.5162 C.ar    1  LIG  -0.1000  -0.1500 
14    C8       2.4376   -3.4157    3.7193 C.ar    1  LIG  -0.1169  -0.1500 
15    C9       3.4395   -2.4632    3.8950 C.ar    1  LIG   0.0271   0.1770 
16    C10      3.7349   -1.5545    2.8805 C.ar    1  LIG  -0.1161  -0.1500 
17    C11      3.0260   -1.6040    1.6783 C.ar    1  LIG  -0.0870  -0.1500 
18    Cl1      4.3146   -2.4064    5.3765 Cl      1  LIG  -0.0846  -0.1770 
19    H1       8.0485   -8.4808   -0.3811 H       1  LIG   0.0485   0.0000 
20    H2       7.3767   -7.7456   -1.8564 H       1  LIG   0.0582   0.0000 
21    H3       7.9290   -6.7123   -0.5438 H       1  LIG   0.0548   0.0000 
22    H4       5.5586   -8.6458   -0.3953 H       1  LIG   0.0521   0.0000 
23    H5       6.1161   -7.5907    0.9295 H       1  LIG   0.0493   0.0000 
24    H6       2.2587   -8.0114    1.7596 H       1  LIG   0.0853   0.0000 
25    H7       3.9340   -8.5232    1.4499 H       1  LIG   0.0512   0.0000 
26    H8       3.5208   -8.3376    3.8983 H       1  LIG   0.0521   0.0000 
27    H9       4.6995   -7.1099    3.3758 H       1  LIG   0.0554   0.0000 
28    H10      3.0336   -6.6394    3.6903 H       1  LIG   0.0452   0.0000 
29    H11      0.8579   -4.5172   -1.4826 H       1  LIG   0.1329   0.0000 
30    H12      1.2123   -5.0158    0.1698 H       1  LIG   0.1058   0.0000 
31    H13      0.9459   -4.2081    2.4021 H       1  LIG   0.1351   0.1500 
32    H14      2.1964   -4.1231    4.5083 H       1  LIG   0.1512   0.1500 
33    H15      4.5115   -0.8057    3.0110 H       1  LIG   0.1536   0.1500 
34    H16      3.2692   -0.8889    0.8956 H       1  LIG   0.1525   0.1500 
@<TRIPOS>BOND
1     1     2     1
2     1     19    1
3     1     20    1
4     1     21    1
5     2     3     1
6     2     22    1
7     2     23    1
8     3     4     1
9     4     5     2
10    4     6     1
11    4     9     1
12    6     7     1
13    7     8     1
14    7     24    1
15    7     25    1
16    8     26    1
17    8     27    1
18    8     28    1
19    9     10    1
20    10    11    1
21    10    29    1
22    10    30    1
23    11    12    1
24    12    17    ar
25    12    13    ar
26    13    14    ar
27    13    31    1
28    14    15    ar
29    14    32    1
30    15    16    ar
31    15    18    1
32    16    17    ar
33    16    33    1
34    17    34    1
@<TRIPOS>SUBSTRUCTURE
1   LIG    1    
 
########## Number      : 203
########## Name        : ZINC00001093
########## Description : AM1BCC_CHARGES =  -0.0000 ORIGINAL_CHARGES =  -0.0000

@<TRIPOS>MOLECULE
ZINC00001093
25    24    1     0     0    
SMALL
USER_CHARGES
****
****
@<TRIPOS>ATOM
1     C1       3.8296   -9.7813   -1.8961 C.3     1  LIG  -0.1046   0.0000 
2     C2       3.8724   -9.5411   -0.3873 C.3     1  LIG  -0.0709   0.0000 
3     C3       2.9710   -8.3997    0.1537 C.3     1  LIG  -0.0312   0.2910 
4     C4       3.1547   -8.3210    1.6891 C.3     1  LIG  -0.0800   0.0000 
5     C5       2.4033   -7.2167    2.4268 C.3     1  LIG  -0.1064   0.0000 
6     C6       3.3084   -7.0575   -0.5174 C.2     1  LIG   0.6792   0.5690 
7     O1       4.4469   -6.8165   -0.9216 O.2     1  LIG  -0.5191  -0.5700 
8     N1       2.2738   -6.1261   -0.5313 N.am    1  LIG  -0.6072  -0.4900 
9     C7       2.3427   -4.8394   -1.0610 C.2     1  LIG   0.7701   0.6900 
10    O2       3.3311   -4.3282   -1.5805 O.2     1  LIG  -0.5792  -0.5700 
11    N2       1.1434   -4.1676   -0.9353 N.am    1  LIG  -0.6786  -0.8000 
12    Br1      1.0946   -8.8849   -0.2327 Br      1  LIG  -0.1720  -0.2300 
13    H1       1.3792   -6.4158   -0.1508 H       1  LIG   0.3266   0.3700 
14    H2       1.0518   -3.2178   -1.2785 H       1  LIG   0.3287   0.3700 
15    H3       0.3269   -4.5866   -0.5064 H       1  LIG   0.3030   0.3700 
16    H4       4.5555  -10.5567   -2.1640 H       1  LIG   0.0446   0.0000 
17    H5       2.8483  -10.1304   -2.2285 H       1  LIG   0.0440   0.0000 
18    H6       4.0859   -8.8825   -2.4632 H       1  LIG   0.0553   0.0000 
19    H7       3.6159  -10.4852    0.1117 H       1  LIG   0.0567   0.0000 
20    H8       4.9162   -9.3299   -0.1187 H       1  LIG   0.0740   0.0000 
21    H9       2.8703   -9.2806    2.1413 H       1  LIG   0.0639   0.0000 
22    H10      4.2220   -8.1847    1.9100 H       1  LIG   0.0699   0.0000 
23    H11      2.5742   -7.3139    3.5044 H       1  LIG   0.0480   0.0000 
24    H12      2.7591   -6.2247    2.1344 H       1  LIG   0.0440   0.0000 
25    H13      1.3240   -7.2674    2.2614 H       1  LIG   0.0412   0.0000 
@<TRIPOS>BOND
1     1     2     1
2     1     16    1
3     1     17    1
4     1     18    1
5     2     3     1
6     2     19    1
7     2     20    1
8     3     4     1
9     3     6     1
10    3     12    1
11    4     5     1
12    4     21    1
13    4     22    1
14    5     23    1
15    5     24    1
16    5     25    1
17    6     7     2
18    6     8     am
19    8     9     am
20    8     13    1
21    9     10    2
22    9     11    am
23    11    14    1
24    11    15    1
@<TRIPOS>SUBSTRUCTURE
1   LIG    1    
 
########## Number      : 204
########## Name        : ZINC00001094
########## Description : AM1BCC_CHARGES =   0.0001 ORIGINAL_CHARGES =  -0.0000

@<TRIPOS>MOLECULE
ZINC00001094
28    28    1     0     0    
SMALL
USER_CHARGES
****
****
@<TRIPOS>ATOM
1     C1       2.5920   -8.0903   -1.1848 C.3     1  LIG  -0.1411   0.1800 
2     C2       3.9306   -7.5256   -0.8756 C.2     1  LIG   0.4689   0.0065 
3     N1       5.0790   -8.0588   -1.2494 N.2     1  LIG  -0.6702  -0.5653 
4     C3       6.0527   -7.2387   -0.7480 C.2     1  LIG   0.4308   0.0772 
5     C4       5.4909   -6.1850   -0.0723 C.2     1  LIG  -0.3608  -0.0716 
6     N2       4.1331   -6.3671   -0.1413 N.pl3   1  LIG  -0.1663   0.0476 
7     C5       3.0810   -5.5804    0.4793 C.3     1  LIG   0.0183   0.2556 
8     C6       2.5394   -4.4942   -0.4436 C.3     1  LIG   0.0630   0.3001 
9     N3       1.4974   -3.7101    0.2077 N.pl3   1  LIG  -0.4997  -0.7301 
10    C7       0.7684   -2.6897   -0.3607 C.2     1  LIG   0.5788   0.5900 
11    S1       0.8947   -2.1186   -1.9254 S.2     1  LIG  -0.5363  -0.3800 
12    O1      -0.1073   -2.1816    0.5533 O.3     1  LIG  -0.4050  -0.4300 
13    C8      -1.0144   -1.0976    0.2661 C.3     1  LIG   0.1219   0.2800 
14    N4       6.1601   -5.1182    0.5902 N.pl3   1  LIG   0.3624   0.9600 
15    O2       5.5707   -4.0375    0.6916 O.2     1  LIG  -0.2375  -0.5200 
16    O3       7.3045   -5.3569    0.9941 O.3     1  LIG  -0.1856  -0.5200 
17    H1       1.2899   -3.9129    1.1808 H       1  LIG   0.3273   0.3700 
18    H2       2.6881   -8.9535   -1.8513 H       1  LIG   0.0899   0.0000 
19    H3       2.0933   -8.4270   -0.2710 H       1  LIG   0.0624   0.0000 
20    H4       1.9583   -7.3524   -1.6847 H       1  LIG   0.0676   0.0000 
21    H5       7.1004   -7.4517   -0.9083 H       1  LIG   0.0730   0.1500 
22    H6       2.2779   -6.2646    0.7771 H       1  LIG   0.0764   0.0000 
23    H7       3.4665   -5.1599    1.4142 H       1  LIG   0.0922   0.0000 
24    H8       3.3329   -3.8066   -0.7553 H       1  LIG   0.0736   0.0000 
25    H9       2.1149   -4.9347   -1.3525 H       1  LIG   0.1021   0.0000 
26    H10     -1.5901   -0.9009    1.1748 H       1  LIG   0.0694   0.0000 
27    H11     -0.4577   -0.1920    0.0090 H       1  LIG   0.0551   0.0000 
28    H12     -1.7110   -1.3829   -0.5273 H       1  LIG   0.0695   0.0000 
@<TRIPOS>BOND
1     1     2     1
2     1     18    1
3     1     19    1
4     1     20    1
5     2     6     1
6     2     3     2
7     3     4     1
8     4     5     2
9     4     21    1
10    5     6     1
11    5     14    1
12    6     7     1
13    7     8     1
14    7     22    1
15    7     23    1
16    8     9     1
17    8     24    1
18    8     25    1
19    9     10    1
20    9     17    1
21    10    11    2
22    10    12    1
23    12    13    1
24    13    26    1
25    13    27    1
26    13    28    1
27    14    15    2
28    14    16    1
@<TRIPOS>SUBSTRUCTURE
1   LIG    1    
 
########## Number      : 205
########## Name        : ZINC00001098
########## Description : AM1BCC_CHARGES =  -0.0002 ORIGINAL_CHARGES =   0.0000

@<TRIPOS>MOLECULE
ZINC00001098
17    18    1     0     0    
SMALL
USER_CHARGES
****
****
@<TRIPOS>ATOM
1     C1       4.1938   -9.7896   -0.3089 C.ar    1  LIG  -0.1629  -0.1500 
2     C2       2.9602  -10.1283   -0.8696 C.ar    1  LIG  -0.0692  -0.1500 
3     C3       2.0121   -9.1380   -1.1243 C.ar    1  LIG  -0.1496  -0.1500 
4     C4       2.3097   -7.8121   -0.8137 C.ar    1  LIG   0.1518   0.0825 
5     C5       3.5344   -7.4681   -0.2559 C.ar    1  LIG  -0.2137   0.0862 
6     C6       4.4849   -8.4589   -0.0003 C.ar    1  LIG  -0.0370  -0.1500 
7     C7       3.8055   -6.0594    0.0553 C.2     1  LIG   0.7316   0.5438 
8     O1       4.8713   -5.7082    0.5480 O.2     1  LIG  -0.5884  -0.5700 
9     N1       2.7777   -5.1861   -0.2490 N.am    1  LIG  -0.5982  -0.4900 
10    C8       1.5477   -5.5033   -0.8053 C.2     1  LIG   0.8333   0.7800 
11    O2       0.6879   -4.6582   -1.0437 O.2     1  LIG  -0.5763  -0.5700 
12    O3       1.3230   -6.8535   -1.0890 O.3     1  LIG  -0.3039  -0.2325 
13    H1       2.9401   -4.2057   -0.0434 H       1  LIG   0.3591   0.3700 
14    H2       4.9297  -10.5645   -0.1121 H       1  LIG   0.1475   0.1500 
15    H3       2.7394  -11.1652   -1.1075 H       1  LIG   0.1461   0.1500 
16    H4       1.0535   -9.4033   -1.5604 H       1  LIG   0.1649   0.1500 
17    H5       5.4498   -8.2139    0.4354 H       1  LIG   0.1647   0.1500 
@<TRIPOS>BOND
1     1     6     ar
2     1     2     ar
3     1     14    1
4     2     3     ar
5     2     15    1
6     3     4     ar
7     3     16    1
8     4     12    1
9     4     5     ar
10    5     6     ar
11    5     7     1
12    6     17    1
13    7     8     2
14    7     9     am
15    9     10    am
16    9     13    1
17    10    11    2
18    10    12    1
@<TRIPOS>SUBSTRUCTURE
1   LIG    1    
 
########## Number      : 206
########## Name        : ZINC00001099
########## Description : AM1BCC_CHARGES =  -1.0000 ORIGINAL_CHARGES =  -1.0000

@<TRIPOS>MOLECULE
ZINC00001099
19    19    1     0     0    
SMALL
USER_CHARGES
****
****
@<TRIPOS>ATOM
1     C1       2.9309   -5.6606   -0.7735 C.ar    1  LIG  -0.1426  -0.1500 
2     C2       1.9449   -4.7234   -0.4564 C.ar    1  LIG  -0.0420  -0.1500 
3     C3       0.7123   -5.1622    0.0215 C.ar    1  LIG  -0.4536  -0.0090 
4     C4       0.4593   -6.5200    0.2011 C.ar    1  LIG  -0.0363  -0.1500 
5     C5       1.4508   -7.4507   -0.1184 C.ar    1  LIG  -0.1429  -0.1500 
6     C6       2.6999   -7.0370   -0.6112 C.ar    1  LIG  -0.0492  -0.1790 
7     C7       3.7678   -8.0466   -0.9571 C.2     1  LIG   0.9018   0.9790 
8     O1       4.8723   -7.5981   -1.3975 O.co2   1  LIG  -0.8147  -0.9000 
9     S1      -0.5303   -3.9801    0.4462 S.o2    1  LIG   1.5397   1.4470 
10    O2      -1.4160   -4.5915    1.4167 O.2     1  LIG  -0.6881  -0.6500 
11    O3       0.1331   -2.7244    0.7344 O.2     1  LIG  -0.6830  -0.6500 
12    N1      -1.3636   -3.8374   -1.0386 N.pl3   1  LIG  -1.0248  -0.9780 
13    H1      -2.3240   -4.2024   -1.0278 H       1  LIG   0.4317   0.4200 
14    H2      -0.8581   -4.1606   -1.8731 H       1  LIG   0.4359   0.4200 
15    H3       3.8862   -5.3012   -1.1497 H       1  LIG   0.1622   0.1500 
16    H4       2.1567   -3.6671   -0.5944 H       1  LIG   0.1309   0.1500 
17    H5      -0.4950   -6.8745    0.5794 H       1  LIG   0.1277   0.1500 
18    H6       1.2352   -8.5075    0.0237 H       1  LIG   0.1621   0.1500 
19    O4       3.4865   -9.2738   -0.7843 O.co2   1  LIG  -0.8148  -0.9000 
@<TRIPOS>BOND
1     1     6     ar
2     1     2     ar
3     1     15    1
4     2     3     ar
5     2     16    1
6     3     4     ar
7     3     9     1
8     4     5     ar
9     4     17    1
10    5     6     ar
11    5     18    1
12    6     7     1
13    7     8     2
14    7     19    1
15    9     10    2
16    9     11    2
17    9     12    1
18    12    13    1
19    12    14    1
@<TRIPOS>SUBSTRUCTURE
1   LIG    1    
 
########## Number      : 207
########## Name        : ZINC00001100
########## Description : AM1BCC_CHARGES =   1.0000 ORIGINAL_CHARGES =   1.0000

@<TRIPOS>MOLECULE
ZINC00001100
25    25    1     0     0    
SMALL
USER_CHARGES
****
****
@<TRIPOS>ATOM
1     C1       3.0552   -3.4757   -1.4729 C.3     1  LIG  -0.1343   0.0000 
2     C2       3.6084   -4.8699   -1.1717 C.3     1  LIG   0.1296   0.5030 
3     C3       3.0033   -5.9333   -2.1163 C.3     1  LIG   0.1820   0.4235 
4     C4       3.4213   -7.3439   -1.7256 C.ar    1  LIG  -0.2025  -0.1435 
5     C5       2.7751   -7.9765   -0.6505 C.ar    1  LIG  -0.1113  -0.1500 
6     C6       3.1433   -9.2629   -0.2520 C.ar    1  LIG  -0.1119  -0.1500 
7     C7       4.1635   -9.9347   -0.9205 C.ar    1  LIG  -0.0938  -0.1500 
8     C8       4.8158   -9.3208   -1.9871 C.ar    1  LIG  -0.1151  -0.1500 
9     C9       4.4488   -8.0339   -2.3874 C.ar    1  LIG  -0.1466  -0.1500 
10    O1       3.4097   -5.6589   -3.4529 O.3     1  LIG  -0.6248  -0.6800 
11    H1       2.8134   -4.9779   -3.8091 H       1  LIG   0.4538   0.4000 
12    H2       5.5176   -5.7107   -1.0334 H       1  LIG   0.4687   0.4500 
13    H3       5.3374   -4.6935   -2.3286 H       1  LIG   0.4686   0.4500 
14    H4       1.9632   -3.4676   -1.3911 H       1  LIG   0.0988   0.0000 
15    H5       3.4480   -2.7428   -0.7594 H       1  LIG   0.0655   0.0000 
16    H6       3.3235   -3.1361   -2.4789 H       1  LIG   0.0880   0.0000 
17    H7       3.3589   -5.1036   -0.1240 H       1  LIG   0.1125   0.0000 
18    H8       1.9024   -5.9115   -2.0544 H       1  LIG   0.0968   0.0000 
19    H9       1.9758   -7.4697   -0.1144 H       1  LIG   0.1427   0.1500 
20    H10      2.6331   -9.7402    0.5799 H       1  LIG   0.1595   0.1500 
21    H11      4.4497  -10.9358   -0.6111 H       1  LIG   0.1607   0.1500 
22    H12      5.6117   -9.8443   -2.5095 H       1  LIG   0.1570   0.1500 
23    H13      4.9781   -7.5799   -3.2215 H       1  LIG   0.1400   0.1500 
24    N1       5.0795   -4.8323   -1.3416 N.4     1  LIG  -0.8384  -0.8530 
25    H14      5.5094   -4.0740   -0.7956 H       1  LIG   0.4545   0.4500 
@<TRIPOS>BOND
1     1     2     1
2     1     14    1
3     1     15    1
4     1     16    1
5     2     3     1
6     2     17    1
7     2     24    1
8     3     4     1
9     3     10    1
10    3     18    1
11    4     9     ar
12    4     5     ar
13    5     6     ar
14    5     19    1
15    6     7     ar
16    6     20    1
17    7     8     ar
18    7     21    1
19    8     9     ar
20    8     22    1
21    9     23    1
22    10    11    1
23    12    24    1
24    13    24    1
25    24    25    1
@<TRIPOS>SUBSTRUCTURE
1   LIG    1    
 
########## Number      : 208
########## Name        : ZINC00001102
########## Description : AM1BCC_CHARGES =   0.0002 ORIGINAL_CHARGES =   0.0000

@<TRIPOS>MOLECULE
ZINC00001102
31    32    1     0     0    
SMALL
USER_CHARGES
****
****
@<TRIPOS>ATOM
1     C1       3.3103   -4.4824   -1.4033 C.3     1  LIG   0.1069   0.2800 
2     O1       3.9649   -3.8799   -0.2930 O.3     1  LIG  -0.3168  -0.3567 
3     C2       3.6751   -2.5612   -0.0219 C.2     1  LIG   0.1569  -0.0615 
4     C3       2.8226   -1.7713   -0.6951 C.2     1  LIG  -0.3636  -0.1356 
5     C4       2.6553   -0.3520   -0.3269 C.2     1  LIG   0.7391   0.7056 
6     O2       2.0744    0.4243   -1.0770 O.2     1  LIG  -0.5775  -0.5700 
7     O3       3.1996    0.0454    0.8517 O.3     1  LIG  -0.4250  -0.4300 
8     C5       3.5606   -0.9383    1.8372 C.3     1  LIG   0.1920   0.4182 
9     C6       4.4071   -2.0254    1.1720 C.3     1  LIG  -0.0857   0.1382 
10    C7       4.3248   -0.2832    2.9602 C.2     1  LIG  -0.1951  -0.2882 
11    C8       4.6689    1.0129    3.0412 C.2     1  LIG  -0.0670  -0.1784 
12    C9       5.4058    1.6147    4.1648 C.ar    1  LIG  -0.0667   0.0284 
13    C10      6.3754    0.9146    4.8974 C.ar    1  LIG  -0.1179  -0.1500 
14    C11      7.0697    1.5390    5.9371 C.ar    1  LIG  -0.1326  -0.1500 
15    C12      6.8119    2.8715    6.2499 C.ar    1  LIG  -0.1234  -0.1500 
16    C13      5.8635    3.5835    5.5199 C.ar    1  LIG  -0.1316  -0.1500 
17    C14      5.1687    2.9610    4.4800 C.ar    1  LIG  -0.1114  -0.1500 
18    H1       3.6530   -5.5190   -1.4735 H       1  LIG   0.0740   0.0000 
19    H2       2.2251   -4.4957   -1.2586 H       1  LIG   0.0438   0.0000 
20    H3       3.5759   -3.9761   -2.3370 H       1  LIG   0.0457   0.0000 
21    H4       2.2717   -2.1013   -1.5672 H       1  LIG   0.1689   0.1500 
22    H5       2.6486   -1.4015    2.2524 H       1  LIG   0.0619   0.0000 
23    H6       4.6087   -2.8289    1.8912 H       1  LIG   0.0867   0.0000 
24    H7       5.3739   -1.6289    0.8363 H       1  LIG   0.0906   0.0000 
25    H8       4.5880   -0.9558    3.7746 H       1  LIG   0.1294   0.1500 
26    H9       4.3854    1.7024    2.2500 H       1  LIG   0.1541   0.1500 
27    H10      6.6133   -0.1208    4.6667 H       1  LIG   0.1296   0.1500 
28    H11      7.8162    0.9846    6.4991 H       1  LIG   0.1316   0.1500 
29    H12      7.3532    3.3557    7.0575 H       1  LIG   0.1321   0.1500 
30    H13      5.6646    4.6247    5.7575 H       1  LIG   0.1334   0.1500 
31    H14      4.4346    3.5393    3.9227 H       1  LIG   0.1378   0.1500 
@<TRIPOS>BOND
1     1     2     1
2     1     18    1
3     1     19    1
4     1     20    1
5     2     3     1
6     3     9     1
7     3     4     2
8     4     5     1
9     4     21    1
10    5     6     2
11    5     7     1
12    7     8     1
13    8     9     1
14    8     10    1
15    8     22    1
16    9     23    1
17    9     24    1
18    10    11    2
19    10    25    1
20    11    12    1
21    11    26    1
22    12    17    ar
23    12    13    ar
24    13    14    ar
25    13    27    1
26    14    15    ar
27    14    28    1
28    15    16    ar
29    15    29    1
30    16    17    ar
31    16    30    1
32    17    31    1
@<TRIPOS>SUBSTRUCTURE
1   LIG    1    
 
########## Number      : 209
########## Name        : ZINC00001103
########## Description : AM1BCC_CHARGES =  -1.0001 ORIGINAL_CHARGES =  -1.0000

@<TRIPOS>MOLECULE
ZINC00001103
24    24    1     0     0    
SMALL
USER_CHARGES
****
****
@<TRIPOS>ATOM
1     C1       5.5030   -8.2846   -1.3406 C.3     1  LIG   0.1496   0.3001 
2     N1       4.2693   -8.5361   -0.6162 N.pl3   1  LIG  -0.4645  -0.5382 
3     C2       4.0929   -9.8219    0.0273 C.3     1  LIG   0.1898   0.3001 
4     N2       3.4715   -7.5250   -0.1502 N.2     1  LIG  -0.0624  -0.0620 
5     N3       3.7584   -6.3993   -0.6059 N.2     1  LIG  -0.2931  -0.1790 
6     C3       2.8900   -5.4350   -0.0684 C.ar    1  LIG   0.0937   0.1790 
7     C4       1.7015   -5.1049   -0.7264 C.ar    1  LIG  -0.1523  -0.1500 
8     C5       0.8496   -4.1264   -0.2053 C.ar    1  LIG  -0.1065  -0.1500 
9     C6       1.1709   -3.4493    0.9814 C.ar    1  LIG  -0.1179  -0.1790 
10    C7       2.3716   -3.7784    1.6291 C.ar    1  LIG  -0.1070  -0.1500 
11    C8       3.2235   -4.7569    1.1079 C.ar    1  LIG  -0.1430  -0.1500 
12    C9       0.2512   -2.3929    1.5440 C.2     1  LIG   0.9073   0.9790 
13    O1       0.6100   -1.8222    2.6214 O.co2   1  LIG  -0.8299  -0.9000 
14    H1       5.3615   -7.5006   -2.0893 H       1  LIG   0.0617   0.0000 
15    H2       6.2798   -7.9945   -0.6279 H       1  LIG   0.0212   0.0000 
16    H3       5.8076   -9.1969   -1.8620 H       1  LIG   0.0318   0.0000 
17    H4       3.0650   -9.9206    0.3887 H       1  LIG   0.0631   0.0000 
18    H5       4.2911  -10.6182   -0.6955 H       1  LIG   0.0347   0.0000 
19    H6       4.7889   -9.8975    0.8671 H       1  LIG   0.0104   0.0000 
20    H7       1.4306   -5.6103   -1.6501 H       1  LIG   0.1182   0.1500 
21    H8      -0.0689   -3.8991   -0.7416 H       1  LIG   0.1541   0.1500 
22    H9       2.6612   -3.2749    2.5487 H       1  LIG   0.1540   0.1500 
23    H10      4.1499   -4.9884    1.6274 H       1  LIG   0.1159   0.1500 
24    O2      -0.8173   -2.1484    0.9008 O.co2   1  LIG  -0.8290  -0.9000 
@<TRIPOS>BOND
1     1     2     1
2     1     14    1
3     1     15    1
4     1     16    1
5     2     3     1
6     2     4     1
7     3     17    1
8     3     18    1
9     3     19    1
10    4     5     2
11    5     6     1
12    6     11    ar
13    6     7     ar
14    7     8     ar
15    7     20    1
16    8     9     ar
17    8     21    1
18    9     10    ar
19    9     12    1
20    10    11    ar
21    10    22    1
22    11    23    1
23    12    13    2
24    12    24    1
@<TRIPOS>SUBSTRUCTURE
1   LIG    1    
 
########## Number      : 210
########## Name        : ZINC00001106
########## Description : AM1BCC_CHARGES =   0.0000 ORIGINAL_CHARGES =  -0.0000

@<TRIPOS>MOLECULE
ZINC00001106
25    27    1     0     0    
SMALL
USER_CHARGES
****
****
@<TRIPOS>ATOM
1     C1       5.8667   -3.7680    4.3207 C.ar    1  LIG  -0.1316  -0.1500 
2     C2       5.6819   -5.1178    4.6038 C.ar    1  LIG  -0.1107  -0.1500 
3     C3       4.9453   -5.9196    3.7313 C.ar    1  LIG  -0.1265  -0.1500 
4     C4       4.3832   -5.3803    2.5627 C.ar    1  LIG  -0.0065   0.0000 
5     C5       3.6387   -6.1762    1.6745 C.ar    1  LIG  -0.1070  -0.1500 
6     C6       3.0794   -5.6376    0.5108 C.ar    1  LIG   0.1637   0.1790 
7     C7       3.2734   -4.2775    0.2385 C.ar    1  LIG  -0.1798   0.0862 
8     C8       4.0107   -3.4665    1.1080 C.ar    1  LIG  -0.0340  -0.1500 
9     C9       4.5712   -4.0081    2.2750 C.ar    1  LIG  -0.0625   0.0000 
10    C10      5.3155   -3.2156    3.1642 C.ar    1  LIG  -0.1045  -0.1500 
11    C11      2.6804   -3.7079   -0.9948 C.2     1  LIG   0.6915   0.5438 
12    O1       2.8266   -2.5215   -1.2704 O.2     1  LIG  -0.6284  -0.5700 
13    N1       1.9763   -4.6335   -1.7591 N.am    1  LIG  -0.3182  -0.1110 
14    C12      1.8394   -5.9576   -1.4077 C.2     1  LIG   0.5285   0.4500 
15    N2       2.3436   -6.4841   -0.3407 N.2     1  LIG  -0.6194  -0.6290 
16    N3       1.3753   -4.2083   -2.9424 N.3     1  LIG  -0.6105  -0.7290 
17    H1       0.7489   -3.4394   -2.7022 H       1  LIG   0.3608   0.3600 
18    H2       2.1086   -3.7978   -3.5215 H       1  LIG   0.3601   0.3600 
19    H3       6.4403   -3.1438    4.9999 H       1  LIG   0.1368   0.1500 
20    H4       6.1111   -5.5480    5.5042 H       1  LIG   0.1360   0.1500 
21    H5       4.8136   -6.9723    3.9728 H       1  LIG   0.1386   0.1500 
22    H6       3.4895   -7.2336    1.8889 H       1  LIG   0.1551   0.1500 
23    H7       4.1517   -2.4115    0.8811 H       1  LIG   0.1597   0.1500 
24    H8       5.4727   -2.1579    2.9629 H       1  LIG   0.1377   0.1500 
25    H9       1.2534   -6.5670   -2.1142 H       1  LIG   0.0711   0.0600 
@<TRIPOS>BOND
1     1     10    ar
2     1     2     ar
3     1     19    1
4     2     3     ar
5     2     20    1
6     3     4     ar
7     3     21    1
8     4     9     ar
9     4     5     ar
10    5     6     ar
11    5     22    1
12    6     15    1
13    6     7     ar
14    7     8     ar
15    7     11    1
16    8     9     ar
17    8     23    1
18    9     10    ar
19    10    24    1
20    11    12    2
21    11    13    am
22    13    14    1
23    13    16    1
24    14    15    2
25    14    25    1
26    16    17    1
27    16    18    1
@<TRIPOS>SUBSTRUCTURE
1   LIG    1    
 
########## Number      : 211
########## Name        : ZINC00001109
########## Description : AM1BCC_CHARGES =  -0.0000 ORIGINAL_CHARGES =   0.0000

@<TRIPOS>MOLECULE
ZINC00001109
35    35    1     0     0    
SMALL
USER_CHARGES
****
****
@<TRIPOS>ATOM
1     C1      -0.7622  -10.2783   -1.6094 C.3     1  LIG  -0.1983   0.0610 
2     C2       0.4809   -9.5516   -1.1653 C.2     1  LIG   0.5745   0.4228 
3     O1       1.2413  -10.0481   -0.3373 O.2     1  LIG  -0.5292  -0.5700 
4     C3       0.7822   -8.2114   -1.7440 C.ar    1  LIG  -0.1684   0.0862 
5     C4      -0.0639   -7.6012   -2.6734 C.ar    1  LIG  -0.0913  -0.1500 
6     C5       0.2541   -6.3421   -3.1924 C.ar    1  LIG  -0.1452  -0.1500 
7     C6       1.4191   -5.6692   -2.7942 C.ar    1  LIG  -0.1140  -0.1435 
8     C7       2.2615   -6.2913   -1.8623 C.ar    1  LIG  -0.1343  -0.1500 
9     C8       1.9475   -7.5495   -1.3409 C.ar    1  LIG  -0.0722  -0.1500 
10    C9       1.7762   -4.2918   -3.3392 C.3     1  LIG   0.1590   0.4235 
11    C10      1.1112   -3.1079   -2.5897 C.3     1  LIG   0.0503   0.3001 
12    C11      1.6099   -2.9819   -1.1413 C.3     1  LIG   0.1292   0.2800 
13    O2       1.1864   -1.7399   -0.5859 O.3     1  LIG  -0.5877  -0.6800 
14    N1      -0.3448   -3.2586   -2.5789 N.am    1  LIG  -0.5427  -0.7301 
15    C12     -1.1752   -2.6076   -3.4802 C.2     1  LIG   0.6477   0.5690 
16    O3      -0.7868   -1.8144   -4.3359 O.2     1  LIG  -0.5268  -0.5700 
17    C13     -2.6323   -2.9820   -3.3123 C.3     1  LIG   0.0580   0.6410 
18    Cl1     -3.5781   -1.4987   -3.1112 Cl      1  LIG  -0.1005  -0.2900 
19    Cl2     -3.1372   -3.8755   -4.7557 Cl      1  LIG  -0.1220  -0.2900 
20    O4       1.4196   -4.2110   -4.7137 O.3     1  LIG  -0.5846  -0.6800 
21    H1       0.2223   -1.6842   -0.7024 H       1  LIG   0.4101   0.4000 
22    H2      -0.7421   -3.9262   -1.9248 H       1  LIG   0.3023   0.3700 
23    H3       1.7756   -4.9966   -5.1630 H       1  LIG   0.4097   0.4000 
24    H4      -0.8152  -11.2445   -1.0977 H       1  LIG   0.0726   0.0000 
25    H5      -1.6530   -9.7044   -1.3414 H       1  LIG   0.0632   0.0000 
26    H6      -0.7272  -10.4683   -2.6852 H       1  LIG   0.0647   0.0000 
27    H7      -0.9780   -8.0775   -3.0152 H       1  LIG   0.1401   0.1500 
28    H8      -0.4222   -5.8913   -3.9153 H       1  LIG   0.1517   0.1500 
29    H9       3.1733   -5.8001   -1.5300 H       1  LIG   0.1413   0.1500 
30    H10      2.6267   -7.9977   -0.6197 H       1  LIG   0.1624   0.1500 
31    H11      2.8697   -4.1841   -3.2387 H       1  LIG   0.0556   0.0000 
32    H12      1.3820   -2.1704   -3.1055 H       1  LIG   0.1235   0.0000 
33    H13      1.2300   -3.7837   -0.4998 H       1  LIG   0.0311   0.0000 
34    H14      2.7036   -2.9976   -1.1037 H       1  LIG   0.0716   0.0000 
35    H15     -2.8002   -3.6156   -2.4377 H       1  LIG   0.0986   0.0000 
@<TRIPOS>BOND
1     1     2     1
2     1     24    1
3     1     25    1
4     1     26    1
5     2     3     2
6     2     4     1
7     4     9     ar
8     4     5     ar
9     5     6     ar
10    5     27    1
11    6     7     ar
12    6     28    1
13    7     8     ar
14    7     10    1
15    8     9     ar
16    8     29    1
17    9     30    1
18    10    11    1
19    10    20    1
20    10    31    1
21    11    12    1
22    11    14    1
23    11    32    1
24    12    13    1
25    12    33    1
26    12    34    1
27    13    21    1
28    14    15    am
29    14    22    1
30    15    16    2
31    15    17    1
32    17    18    1
33    17    19    1
34    17    35    1
35    20    23    1
@<TRIPOS>SUBSTRUCTURE
1   LIG    1    
 
########## Number      : 212
########## Name        : ZINC00001115
########## Description : AM1BCC_CHARGES =  -0.9998 ORIGINAL_CHARGES =  -1.0000

@<TRIPOS>MOLECULE
ZINC00001115
37    37    1     0     0    
SMALL
USER_CHARGES
****
****
@<TRIPOS>ATOM
1     C1       4.5787   -6.8210    1.6312 C.ar    1  LIG  -0.1169  -0.1500 
2     C2       5.7859   -6.4204    2.2165 C.ar    1  LIG  -0.1347  -0.1500 
3     C3       5.9502   -5.1417    2.7793 C.ar    1  LIG   0.0822   0.1000 
4     C4       4.8413   -4.2784    2.7150 C.ar    1  LIG  -0.1691  -0.1500 
5     C5       3.6307   -4.6737    2.1326 C.ar    1  LIG  -0.1169  -0.1500 
6     C6       3.4866   -5.9524    1.5914 C.ar    1  LIG  -0.0526  -0.1435 
7     C7       2.1912   -6.3741    0.9480 C.3     1  LIG  -0.0484   0.1435 
8     C8       2.1610   -6.0340   -0.5437 C.3     1  LIG  -0.0569   0.0000 
9     C9       0.8452   -6.4656   -1.1838 C.3     1  LIG  -0.1979  -0.1060 
10    C10      0.7171   -6.1674   -2.6811 C.2     1  LIG   0.9094   0.9060 
11    O1       1.7001   -5.6007   -3.2317 O.co2   1  LIG  -0.8489  -0.9000 
12    N1       7.1673   -4.7583    3.3634 N.pl3   1  LIG  -0.6348  -0.8382 
13    C11      7.4996   -3.3246    3.4253 C.3     1  LIG   0.1728   0.3691 
14    C12      9.0040   -3.0694    3.4367 C.3     1  LIG   0.0335   0.2900 
15    Cl1      9.3401   -1.3262    3.2872 Cl      1  LIG  -0.2010  -0.2900 
16    C13      7.7743   -5.6878    4.3313 C.3     1  LIG   0.1767   0.3691 
17    C14      7.0992   -5.5778    5.6957 C.3     1  LIG   0.0003   0.2900 
18    Cl2      7.8612   -6.6893    6.8577 Cl      1  LIG  -0.2029  -0.2900 
19    H1       4.5045   -7.8165    1.2001 H       1  LIG   0.1391   0.1500 
20    H2       6.6125   -7.1266    2.1946 H       1  LIG   0.1297   0.1500 
21    H3       4.8875   -3.2782    3.1395 H       1  LIG   0.1216   0.1500 
22    H4       2.8011   -3.9711    2.1087 H       1  LIG   0.1356   0.1500 
23    H5       2.0474   -7.4524    1.0929 H       1  LIG   0.0381   0.0000 
24    H6       1.3538   -5.8871    1.4639 H       1  LIG   0.0370   0.0000 
25    H7       2.3023   -4.9544   -0.6826 H       1  LIG   0.0523   0.0000 
26    H8       2.9988   -6.5255   -1.0548 H       1  LIG   0.0497   0.0000 
27    H9       0.7110   -7.5462   -1.0491 H       1  LIG   0.0199   0.0000 
28    H10      0.0109   -5.9673   -0.6747 H       1  LIG   0.0199   0.0000 
29    H11      7.0931   -2.8175    2.5401 H       1  LIG   0.0826   0.0000 
30    H12      7.0325   -2.8719    4.3086 H       1  LIG   0.0239   0.0000 
31    H13      9.4639   -3.3981    4.3723 H       1  LIG   0.0596   0.0000 
32    H14      9.5006   -3.5785    2.6049 H       1  LIG   0.0813   0.0000 
33    H15      7.7325   -6.7239    3.9773 H       1  LIG   0.0724   0.0000 
34    H16      8.8445   -5.4778    4.4312 H       1  LIG   0.0542   0.0000 
35    H17      7.1847   -4.5662    6.1034 H       1  LIG   0.0617   0.0000 
36    H18      6.0371   -5.8351    5.6399 H       1  LIG   0.0795   0.0000 
37    O2      -0.3827   -6.5352   -3.1870 O.co2   1  LIG  -0.8518  -0.9000 
@<TRIPOS>BOND
1     1     6     ar
2     1     2     ar
3     1     19    1
4     2     3     ar
5     2     20    1
6     3     4     ar
7     3     12    1
8     4     5     ar
9     4     21    1
10    5     6     ar
11    5     22    1
12    6     7     1
13    7     8     1
14    7     23    1
15    7     24    1
16    8     9     1
17    8     25    1
18    8     26    1
19    9     10    1
20    9     27    1
21    9     28    1
22    10    11    2
23    10    37    1
24    12    13    1
25    12    16    1
26    13    14    1
27    13    29    1
28    13    30    1
29    14    15    1
30    14    31    1
31    14    32    1
32    16    17    1
33    16    33    1
34    16    34    1
35    17    18    1
36    17    35    1
37    17    36    1
@<TRIPOS>SUBSTRUCTURE
1   LIG    1    
 
########## Number      : 213
########## Name        : ZINC00001116
########## Description : AM1BCC_CHARGES =  -0.0001 ORIGINAL_CHARGES =  -0.0000

@<TRIPOS>MOLECULE
ZINC00001116
23    24    1     0     0    
SMALL
USER_CHARGES
****
****
@<TRIPOS>ATOM
1     C1       2.8707   -7.4201    0.9784 C.ar    1  LIG  -0.1789  -0.1500 
2     C2       2.8592   -8.7031    0.4243 C.ar    1  LIG  -0.0965  -0.1500 
3     C3       2.4322   -8.8801   -0.8869 C.ar    1  LIG  -0.0125   0.1770 
4     C4       2.0196   -7.7856   -1.6406 C.ar    1  LIG  -0.0998  -0.1500 
5     C5       2.0338   -6.5032   -1.0786 C.ar    1  LIG  -0.1448  -0.1500 
6     C6       2.4588   -6.2939    0.2399 C.ar    1  LIG   0.1731   0.1000 
7     N1       2.5002   -5.0374    0.8701 N.pl3   1  LIG  -0.7269  -0.6000 
8     C7       2.1748   -3.7349    0.4542 C.ar    1  LIG   0.9408   0.7200 
9     N2       1.7143   -3.4827   -0.7803 N.ar    1  LIG  -0.8133  -0.6200 
10    C8       1.4448   -2.1987   -1.0414 C.ar    1  LIG   0.7117   0.4700 
11    N3       1.5899   -1.1694   -0.2024 N.ar    1  LIG  -0.8105  -0.6200 
12    C9       2.0539   -1.5003    1.0102 C.ar    1  LIG   0.9357   0.7200 
13    N4       2.3551   -2.7619    1.3724 N.ar    1  LIG  -0.8565  -0.6200 
14    N5       2.2333   -0.4940    1.9395 N.pl3   1  LIG  -0.9575  -0.9000 
15    Cl1      2.4141  -10.4556   -1.5792 Cl      1  LIG  -0.0951  -0.1770 
16    H1       2.8321   -5.0490    1.8288 H       1  LIG   0.4584   0.4000 
17    H2       2.0140    0.4593    1.6899 H       1  LIG   0.4537   0.4000 
18    H3       2.5819   -0.7207    2.8594 H       1  LIG   0.4509   0.4000 
19    H4       3.2087   -7.3044    2.0066 H       1  LIG   0.1358   0.1500 
20    H5       3.1845   -9.5475    1.0258 H       1  LIG   0.1477   0.1500 
21    H6       1.6836   -7.9111   -2.6668 H       1  LIG   0.1492   0.1500 
22    H7       1.7027   -5.6838   -1.7073 H       1  LIG   0.1796   0.1500 
23    H8       1.0716   -1.9715   -2.0324 H       1  LIG   0.0556   0.1500 
@<TRIPOS>BOND
1     1     6     ar
2     1     2     ar
3     1     19    1
4     2     3     ar
5     2     20    1
6     3     4     ar
7     3     15    1
8     4     5     ar
9     4     21    1
10    5     6     ar
11    5     22    1
12    6     7     1
13    7     8     1
14    7     16    1
15    8     13    ar
16    8     9     ar
17    9     10    ar
18    10    11    ar
19    10    23    1
20    11    12    ar
21    12    13    ar
22    12    14    1
23    14    17    1
24    14    18    1
@<TRIPOS>SUBSTRUCTURE
1   LIG    1    
 
########## Number      : 214
########## Name        : ZINC00001117
########## Description : AM1BCC_CHARGES =  -0.0001 ORIGINAL_CHARGES =  -0.0000

@<TRIPOS>MOLECULE
ZINC00001117
29    29    1     0     0    
SMALL
USER_CHARGES
****
****
@<TRIPOS>ATOM
1     C1       4.3663   -7.0082   -0.0173 C.ar    1  LIG  -0.1257  -0.1500 
2     C2       3.4670   -6.0172    0.3812 C.ar    1  LIG  -0.1032  -0.1500 
3     C3       3.1734   -5.7971    1.7402 C.ar    1  LIG  -0.0945  -0.1435 
4     C4       3.7981   -6.6258    2.6908 C.ar    1  LIG   0.0448   0.1770 
5     C5       4.7009   -7.6207    2.2935 C.ar    1  LIG  -0.1224  -0.1500 
6     C6       4.9817   -7.8043    0.9420 C.ar    1  LIG   0.0287   0.1770 
7     Cl1      6.0911   -9.0277    0.4557 Cl      1  LIG  -0.0821  -0.1770 
8     Cl2      3.4941   -6.4807    4.3879 Cl      1  LIG  -0.0742  -0.1770 
9     C7       2.1819   -4.7112    2.1087 C.3     1  LIG   0.1387   0.4436 
10    N1       2.5410   -3.3878    1.5750 N.am    1  LIG  -0.4705  -0.6602 
11    C8       1.7058   -2.8692    0.4845 C.3     1  LIG   0.0475   0.3001 
12    C9       0.4772   -2.1331    1.0074 C.3     1  LIG   0.1005   0.2800 
13    O1      -0.2969   -1.6473   -0.0804 O.3     1  LIG  -0.5850  -0.6800 
14    C10      3.5869   -2.6855    2.1923 C.2     1  LIG   0.6538   0.5690 
15    O2       4.2476   -3.1708    3.1174 O.2     1  LIG  -0.5398  -0.5700 
16    C11      3.9113   -1.2988    1.6615 C.3     1  LIG   0.0629   0.6410 
17    Cl3      4.4078   -0.2528    3.0109 Cl      1  LIG  -0.0958  -0.2900 
18    Cl4      5.2317   -1.4702    0.4903 Cl      1  LIG  -0.1223  -0.2900 
19    H1       0.2468   -1.0046   -0.5672 H       1  LIG   0.3994   0.4000 
20    H2       4.5733   -7.1466   -1.0751 H       1  LIG   0.1513   0.1500 
21    H3       2.9947   -5.4132   -0.3894 H       1  LIG   0.1382   0.1500 
22    H4       5.1812   -8.2520    3.0380 H       1  LIG   0.1639   0.1500 
23    H5       1.1882   -5.0001    1.7454 H       1  LIG   0.0639   0.0000 
24    H6       2.0893   -4.5933    3.1921 H       1  LIG   0.0905   0.0000 
25    H7       2.2925   -2.2137   -0.1657 H       1  LIG   0.0517   0.0000 
26    H8       1.3950   -3.7015   -0.1579 H       1  LIG   0.0723   0.0000 
27    H9      -0.1544   -2.8030    1.5994 H       1  LIG   0.0798   0.0000 
28    H10      0.7518   -1.2880    1.6467 H       1  LIG   0.0294   0.0000 
29    H11      3.0690   -0.8028    1.1828 H       1  LIG   0.0981   0.0000 
@<TRIPOS>BOND
1     1     6     ar
2     1     2     ar
3     1     20    1
4     2     3     ar
5     2     21    1
6     3     4     ar
7     3     9     1
8     4     5     ar
9     4     8     1
10    5     6     ar
11    5     22    1
12    6     7     1
13    9     10    1
14    9     23    1
15    9     24    1
16    10    11    1
17    10    14    am
18    11    12    1
19    11    25    1
20    11    26    1
21    12    13    1
22    12    27    1
23    12    28    1
24    13    19    1
25    14    15    2
26    14    16    1
27    16    17    1
28    16    18    1
29    16    29    1
@<TRIPOS>SUBSTRUCTURE
1   LIG    1    
 
########## Number      : 215
########## Name        : ZINC00001118
########## Description : AM1BCC_CHARGES =   0.0001 ORIGINAL_CHARGES =   0.0000

@<TRIPOS>MOLECULE
ZINC00001118
35    37    1     0     0    
SMALL
USER_CHARGES
****
****
@<TRIPOS>ATOM
1     C1       4.0423    9.0829    3.3087 C.3     1  LIG   0.1788   0.3691 
2     N1       2.8182    9.6919    3.7713 N.pl3   1  LIG  -0.7943  -0.8191 
3     C2       1.9707    9.1198    4.7003 C.2     1  LIG   0.6125   0.4390 
4     N2       2.2071    7.9646    5.2558 N.2     1  LIG  -0.6338  -0.6290 
5     C3       1.3200    7.3992    6.1900 C.ar    1  LIG   0.1607   0.1790 
6     C4       1.0715    6.0234    6.0638 C.ar    1  LIG  -0.1089  -0.1500 
7     C5       0.2383    5.3502    6.9581 C.ar    1  LIG  -0.1121  -0.1500 
8     C6      -0.3553    6.0511    8.0019 C.ar    1  LIG   0.0052   0.1770 
9     C7      -0.1192    7.4158    8.1597 C.ar    1  LIG  -0.0918  -0.1500 
10    C8       0.7224    8.0919    7.2609 C.ar    1  LIG  -0.1457   0.0862 
11    C9       0.9413    9.5479    7.4773 C.2     1  LIG   0.1021  -0.1684 
12    N3       0.9522   10.3856    6.4517 N.pl3   1  LIG   0.3963   0.5300 
13    C10      0.7454    9.9330    5.0612 C.3     1  LIG  -0.1446   0.1600 
14    O1       1.1674   11.6348    6.6176 O.3     1  LIG  -0.5636  -0.6330 
15    C11      1.1560   10.0548    8.8529 C.ar    1  LIG  -0.1176   0.0862 
16    C12      2.2210    9.5501    9.6050 C.ar    1  LIG  -0.1022  -0.1500 
17    C13      2.4180   10.0051   10.9085 C.ar    1  LIG  -0.1363  -0.1500 
18    C14      1.5542   10.9542   11.4568 C.ar    1  LIG  -0.1189  -0.1500 
19    C15      0.4893   11.4512   10.7039 C.ar    1  LIG  -0.1350  -0.1500 
20    C16      0.2850   11.0019    9.3996 C.ar    1  LIG  -0.0937  -0.1500 
21    Cl1     -1.3882    5.2281    9.1065 Cl      1  LIG  -0.0868  -0.1770 
22    H1       2.5950   10.6045    3.3842 H       1  LIG   0.4185   0.4000 
23    H2       4.5282    9.7332    2.5754 H       1  LIG   0.0472   0.0000 
24    H3       4.7358    8.9286    4.1408 H       1  LIG   0.0331   0.0000 
25    H4       3.8384    8.1206    2.8294 H       1  LIG   0.0663   0.0000 
26    H5       1.5359    5.4635    5.2542 H       1  LIG   0.1539   0.1500 
27    H6       0.0648    4.2854    6.8284 H       1  LIG   0.1514   0.1500 
28    H7      -0.6009    7.9484    8.9763 H       1  LIG   0.1615   0.1500 
29    H8       0.6435   10.8117    4.4168 H       1  LIG   0.1114   0.0000 
30    H9      -0.1761    9.3479    4.9969 H       1  LIG   0.1009   0.0000 
31    H10      2.9021    8.8135    9.1879 H       1  LIG   0.1407   0.1500 
32    H11      3.2454    9.6205   11.4981 H       1  LIG   0.1337   0.1500 
33    H12      1.7105   11.3065   12.4726 H       1  LIG   0.1319   0.1500 
34    H13     -0.1825   12.1878   11.1353 H       1  LIG   0.1342   0.1500 
35    H14     -0.5526   11.3885    8.8258 H       1  LIG   0.1451   0.1500 
@<TRIPOS>BOND
1     1     2     1
2     1     23    1
3     1     24    1
4     1     25    1
5     2     3     1
6     2     22    1
7     3     13    1
8     3     4     2
9     4     5     1
10    5     10    ar
11    5     6     ar
12    6     7     ar
13    6     26    1
14    7     8     ar
15    7     27    1
16    8     9     ar
17    8     21    1
18    9     10    ar
19    9     28    1
20    10    11    1
21    11    12    2
22    11    15    1
23    12    13    1
24    12    14    1
25    13    29    1
26    13    30    1
27    15    20    ar
28    15    16    ar
29    16    17    ar
30    16    31    1
31    17    18    ar
32    17    32    1
33    18    19    ar
34    18    33    1
35    19    20    ar
36    19    34    1
37    20    35    1
@<TRIPOS>SUBSTRUCTURE
1   LIG    1    
 
########## Number      : 216
########## Name        : ZINC00001120
########## Description : AM1BCC_CHARGES =   0.0000 ORIGINAL_CHARGES =   0.0000

@<TRIPOS>MOLECULE
ZINC00001120
29    29    1     0     0    
SMALL
USER_CHARGES
****
****
@<TRIPOS>ATOM
1     C1       4.8306   -4.7804   -2.1508 C.3     1  LIG  -0.0725   0.1382 
2     C2       4.2560   -5.5348   -0.9838 C.2     1  LIG   0.1205  -0.0292 
3     C3       3.3924   -5.0063   -0.0910 C.2     1  LIG  -0.1009   0.1144 
4     C4       2.8893   -5.9067    1.0078 C.2     1  LIG   0.6975   0.6156 
5     O1       2.1455   -5.4947    1.8961 O.2     1  LIG  -0.6231  -0.5700 
6     N1       3.3360   -7.2134    0.9695 N.am    1  LIG  -0.5779  -0.4900 
7     C5       4.2240   -7.7412    0.0487 C.2     1  LIG   0.8059   0.6900 
8     O2       4.5989   -8.9126    0.0854 O.2     1  LIG  -0.6323  -0.5700 
9     N2       4.6557   -6.8503   -0.9097 N.am    1  LIG  -0.4693  -0.5390 
10    N3       2.9377   -3.6870   -0.0612 N.pl3   1  LIG  -0.6280  -0.8382 
11    C6       3.8368   -2.5701    0.2622 C.3     1  LIG   0.1836   0.3691 
12    C7       3.8933   -2.3560    1.7709 C.3     1  LIG  -0.0005   0.2900 
13    Cl1      4.9588   -0.9875    2.1641 Cl      1  LIG  -0.1908  -0.2900 
14    C8       1.5213   -3.3542   -0.2696 C.3     1  LIG   0.1751   0.3691 
15    C9       1.2675   -3.0528   -1.7424 C.3     1  LIG   0.0298   0.2900 
16    Cl2     -0.4386   -2.6274   -2.0061 Cl      1  LIG  -0.1890  -0.2900 
17    H1       3.0025   -7.8366    1.6969 H       1  LIG   0.3577   0.3700 
18    H2       5.3058   -7.1948   -1.6099 H       1  LIG   0.3557   0.3700 
19    H3       4.3682   -3.8000   -2.2958 H       1  LIG   0.0864   0.0000 
20    H4       5.9064   -4.6305   -2.0112 H       1  LIG   0.0701   0.0000 
21    H5       4.6788   -5.3416   -3.0797 H       1  LIG   0.0521   0.0000 
22    H6       4.8455   -2.7677   -0.1201 H       1  LIG   0.0596   0.0000 
23    H7       3.4908   -1.6571   -0.2380 H       1  LIG   0.0657   0.0000 
24    H8       2.9030   -2.1362    2.1813 H       1  LIG   0.0770   0.0000 
25    H9       4.2851   -3.2401    2.2833 H       1  LIG   0.0802   0.0000 
26    H10      0.8779   -4.1823    0.0510 H       1  LIG   0.0728   0.0000 
27    H11      1.2447   -2.4907    0.3477 H       1  LIG   0.0603   0.0000 
28    H12      1.8779   -2.2134   -2.0894 H       1  LIG   0.0675   0.0000 
29    H13      1.4956   -3.9205   -2.3694 H       1  LIG   0.0668   0.0000 
@<TRIPOS>BOND
1     1     2     1
2     1     19    1
3     1     20    1
4     1     21    1
5     2     9     1
6     2     3     2
7     3     4     1
8     3     10    1
9     4     5     2
10    4     6     am
11    6     7     am
12    6     17    1
13    7     8     2
14    7     9     am
15    9     18    1
16    10    11    1
17    10    14    1
18    11    12    1
19    11    22    1
20    11    23    1
21    12    13    1
22    12    24    1
23    12    25    1
24    14    15    1
25    14    26    1
26    14    27    1
27    15    16    1
28    15    28    1
29    15    29    1
@<TRIPOS>SUBSTRUCTURE
1   LIG    1    
 
########## Number      : 217
########## Name        : ZINC00001122
########## Description : AM1BCC_CHARGES =   0.0001 ORIGINAL_CHARGES =   0.0000

@<TRIPOS>MOLECULE
ZINC00001122
20    21    1     0     0    
SMALL
USER_CHARGES
****
****
@<TRIPOS>ATOM
1     C1       5.5222   -6.0250   -2.1478 C.ar    1  LIG  -0.2042  -0.1500 
2     C2       4.4666   -5.1062   -2.2513 C.ar    1  LIG  -0.0875  -0.1500 
3     C3       3.1551   -5.4978   -1.9649 C.ar    1  LIG  -0.0078   0.1770 
4     C4       2.9125   -6.8115   -1.5914 C.ar    1  LIG  -0.0459  -0.1435 
5     C5       3.9687   -7.7272   -1.4869 C.ar    1  LIG  -0.1060  -0.1435 
6     C6       5.2700   -7.3400   -1.7561 C.ar    1  LIG   0.1346   0.0825 
7     O1       6.2787   -8.2478   -1.6308 O.3     1  LIG  -0.4922  -0.5325 
8     C7       3.4766   -9.0606   -1.0161 C.3     1  LIG  -0.0238   0.1435 
9     C8       1.9761   -8.9466   -1.3117 C.3     1  LIG  -0.0806   0.0000 
10    C9       1.6184   -7.4583   -1.1999 C.3     1  LIG  -0.0370   0.1435 
11    Cl1      1.8811   -4.3477   -2.0744 Cl      1  LIG  -0.0944  -0.1770 
12    H1       7.1184   -7.8119   -1.8549 H       1  LIG   0.4199   0.4500 
13    H2       6.5339   -5.6958   -2.3688 H       1  LIG   0.1370   0.1500 
14    H3       4.6854   -4.0838   -2.5504 H       1  LIG   0.1469   0.1500 
15    H4       3.9266   -9.8934   -1.5636 H       1  LIG   0.0608   0.0000 
16    H5       3.6616   -9.1723    0.0572 H       1  LIG   0.0607   0.0000 
17    H6       1.7857   -9.2854   -2.3398 H       1  LIG   0.0467   0.0000 
18    H7       1.3704   -9.5730   -0.6495 H       1  LIG   0.0468   0.0000 
19    H8       1.3604   -7.1903   -0.1701 H       1  LIG   0.0630   0.0000 
20    H9       0.7950   -7.2028   -1.8725 H       1  LIG   0.0631   0.0000 
@<TRIPOS>BOND
1     1     6     ar
2     1     2     ar
3     1     13    1
4     2     3     ar
5     2     14    1
6     3     4     ar
7     3     11    1
8     4     10    1
9     4     5     ar
10    5     6     ar
11    5     8     1
12    6     7     1
13    7     12    1
14    8     9     1
15    8     15    1
16    8     16    1
17    9     10    1
18    9     17    1
19    9     18    1
20    10    19    1
21    10    20    1
@<TRIPOS>SUBSTRUCTURE
1   LIG    1    
 
########## Number      : 218
########## Name        : ZINC00001123
########## Description : AM1BCC_CHARGES =  -0.0001 ORIGINAL_CHARGES =   0.0000

@<TRIPOS>MOLECULE
ZINC00001123
32    33    1     0     0    
SMALL
USER_CHARGES
****
****
@<TRIPOS>ATOM
1     C1       3.8747   -8.9248   -2.0670 C.ar    1  LIG  -0.1316  -0.1500 
2     C2       2.5687   -8.5145   -1.8183 C.ar    1  LIG  -0.1210  -0.1500 
3     C3       2.3294   -7.2955   -1.1825 C.ar    1  LIG  -0.1225  -0.1500 
4     C4       3.3951   -6.4701   -0.7854 C.ar    1  LIG  -0.0183   0.0000 
5     C5       3.1728   -5.2363   -0.1421 C.ar    1  LIG  -0.1404  -0.1500 
6     C6       4.2267   -4.3942    0.2631 C.ar    1  LIG   0.1236   0.1000 
7     C7       5.5311   -4.8363   -0.0130 C.ar    1  LIG  -0.1631  -0.1500 
8     C8       5.7755   -6.0585   -0.6496 C.ar    1  LIG  -0.0966  -0.1500 
9     C9       4.7177   -6.8868   -1.0409 C.ar    1  LIG  -0.0525   0.0000 
10    C10      4.9442   -8.1166   -1.6813 C.ar    1  LIG  -0.1111  -0.1500 
11    N1       3.9693   -3.1732    0.9053 N.pl3   1  LIG  -0.6497  -0.8382 
12    C11      3.0500   -3.1977    2.0560 C.3     1  LIG   0.1805   0.3691 
13    C12      3.7558   -3.6985    3.3133 C.3     1  LIG  -0.0055   0.2900 
14    Cl1      2.6355   -3.7011    4.6956 Cl      1  LIG  -0.1834  -0.2900 
15    C13      4.9657   -2.0941    0.7942 C.3     1  LIG   0.1785   0.3691 
16    C14      4.3415   -0.7062    0.9055 C.3     1  LIG   0.0272   0.2900 
17    Cl2      5.5512    0.5502    0.5422 Cl      1  LIG  -0.1868  -0.2900 
18    H1       4.0619   -9.8734   -2.5618 H       1  LIG   0.1330   0.1500 
19    H2       1.7349   -9.1425   -2.1188 H       1  LIG   0.1330   0.1500 
20    H3       1.3002   -6.9948   -0.9978 H       1  LIG   0.1338   0.1500 
21    H4       2.1434   -4.9187    0.0177 H       1  LIG   0.1406   0.1500 
22    H5       6.3946   -4.2462    0.2848 H       1  LIG   0.1343   0.1500 
23    H6       6.8065   -6.3551   -0.8319 H       1  LIG   0.1347   0.1500 
24    H7       5.9578   -8.4544   -1.8861 H       1  LIG   0.1325   0.1500 
25    H8       2.6469   -2.1950    2.2338 H       1  LIG   0.0634   0.0000 
26    H9       2.1673   -3.8147    1.8541 H       1  LIG   0.0720   0.0000 
27    H10      4.1257   -4.7204    3.1857 H       1  LIG   0.0757   0.0000 
28    H11      4.6031   -3.0589    3.5776 H       1  LIG   0.0656   0.0000 
29    H12      5.7417   -2.2229    1.5587 H       1  LIG   0.0298   0.0000 
30    H13      5.4565   -2.1502   -0.1866 H       1  LIG   0.0761   0.0000 
31    H14      3.5118   -0.5852    0.2023 H       1  LIG   0.0823   0.0000 
32    H15      3.9750   -0.5061    1.9157 H       1  LIG   0.0658   0.0000 
@<TRIPOS>BOND
1     1     10    ar
2     1     2     ar
3     1     18    1
4     2     3     ar
5     2     19    1
6     3     4     ar
7     3     20    1
8     4     9     ar
9     4     5     ar
10    5     6     ar
11    5     21    1
12    6     7     ar
13    6     11    1
14    7     8     ar
15    7     22    1
16    8     9     ar
17    8     23    1
18    9     10    ar
19    10    24    1
20    11    12    1
21    11    15    1
22    12    13    1
23    12    25    1
24    12    26    1
25    13    14    1
26    13    27    1
27    13    28    1
28    15    16    1
29    15    29    1
30    15    30    1
31    16    17    1
32    16    31    1
33    16    32    1
@<TRIPOS>SUBSTRUCTURE
1   LIG    1    
 
########## Number      : 219
########## Name        : ZINC00001124
########## Description : AM1BCC_CHARGES =  -0.0002 ORIGINAL_CHARGES =   0.0000

@<TRIPOS>MOLECULE
ZINC00001124
16    16    1     0     0    
SMALL
USER_CHARGES
****
****
@<TRIPOS>ATOM
1     C1       6.7051   -8.0500   -0.6190 C.3     1  LIG  -0.0590   0.1435 
2     C2       5.3784   -8.7515   -0.5406 C.ar    1  LIG  -0.0260  -0.1435 
3     C3       4.9452   -9.5267   -1.6278 C.ar    1  LIG  -0.2102  -0.1500 
4     C4       3.7169  -10.1863   -1.5759 C.ar    1  LIG   0.1297   0.0825 
5     C5       2.9022  -10.0898   -0.4535 C.ar    1  LIG  -0.1546  -0.1500 
6     C6       3.3195   -9.3238    0.6330 C.ar    1  LIG  -0.0872  -0.1500 
7     C7       4.5497   -8.6583    0.5909 C.ar    1  LIG  -0.0227   0.1770 
8     Cl1      5.0100   -7.7241    1.9712 Cl      1  LIG  -0.0974  -0.1770 
9     O1       3.2800  -10.9449   -2.6251 O.3     1  LIG  -0.4948  -0.5325 
10    H1       3.9499  -10.9169   -3.3293 H       1  LIG   0.4205   0.4500 
11    H2       7.2049   -8.2404   -1.5749 H       1  LIG   0.0433   0.0000 
12    H3       6.5699   -6.9673   -0.5301 H       1  LIG   0.0577   0.0000 
13    H4       7.3709   -8.4035    0.1748 H       1  LIG   0.0576   0.0000 
14    H5       5.5688   -9.6139   -2.5142 H       1  LIG   0.1380   0.1500 
15    H6       1.9469  -10.6054   -0.4184 H       1  LIG   0.1555   0.1500 
16    H7       2.6781   -9.2521    1.5079 H       1  LIG   0.1494   0.1500 
@<TRIPOS>BOND
1     1     2     1
2     1     11    1
3     1     12    1
4     1     13    1
5     2     7     ar
6     2     3     ar
7     3     4     ar
8     3     14    1
9     4     5     ar
10    4     9     1
11    5     6     ar
12    5     15    1
13    6     7     ar
14    6     16    1
15    7     8     1
16    9     10    1
@<TRIPOS>SUBSTRUCTURE
1   LIG    1    
 
########## Number      : 220
########## Name        : ZINC00001127
########## Description : AM1BCC_CHARGES =   1.9997 ORIGINAL_CHARGES =   1.6665

@<TRIPOS>MOLECULE
ZINC00001127
35    35    1     0     0    
SMALL
USER_CHARGES
****
****
@<TRIPOS>ATOM
1     C1       5.6668  -10.7798   -0.3813 C.3     1  LIG  -0.1273   0.0000 
2     C2       5.4156   -9.3072   -0.6983 C.3     1  LIG   0.0264   0.3276 
3     C3       4.5557   -9.1752   -1.9506 C.3     1  LIG  -0.1342   0.0000 
4     N1       4.7701   -8.6532    0.4666 N.pl3   1  LIG  -0.3296  -0.8443 
5     C4       4.6015   -7.2790    0.6170 C.cat   1  LIG   0.5243   1.2000 
6     N2       3.9526   -6.8392    1.7604 N.pl3   1  LIG  -0.4941  -0.9667 
7     N3       5.1092   -6.3943   -0.3247 N.pl3   1  LIG  -0.5148  -0.9167 
8     C5       4.7827   -5.0485   -0.4540 C.cat   1  LIG   0.4974   1.2000 
9     N4       5.5961   -4.2788   -1.2742 N.pl3   1  LIG  -0.4336  -0.9667 
10    N5       3.6362   -4.5256    0.1364 N.pl3   1  LIG  -0.2400  -0.8277 
11    C6       3.3932   -3.1396    0.3902 C.ar    1  LIG  -0.1494   0.3110 
12    C7       4.4120   -2.1956    0.5472 C.ar    1  LIG  -0.1253  -0.1500 
13    C8       4.1000   -0.8625    0.8285 C.ar    1  LIG  -0.1027  -0.1500 
14    C9       2.7685   -0.4758    0.9704 C.ar    1  LIG   0.0668   0.1770 
15    C10      1.7465   -1.4141    0.8450 C.ar    1  LIG  -0.1018  -0.1500 
16    C11      2.0616   -2.7452    0.5652 C.ar    1  LIG  -0.0819  -0.1500 
17    Cl1      2.3861    1.1659    1.3184 Cl      1  LIG   0.0291  -0.1770 
18    H1       4.4590   -9.2425    1.2355 H       1  LIG   0.3444   0.4500 
19    H2       3.9163   -5.8599    2.0255 H       1  LIG   0.3300   0.4500 
20    H3       3.5712   -7.5027    2.4301 H       1  LIG   0.3477   0.4500 
21    H4       5.7969   -6.7564   -0.9795 H       1  LIG   0.3678   0.4500 
22    H5       5.3506   -3.3290   -1.5367 H       1  LIG   0.3609   0.4500 
23    H6       6.4341   -4.6670   -1.6986 H       1  LIG   0.3461   0.4500 
24    H7       2.8692   -5.1692    0.3239 H       1  LIG   0.3447   0.4500 
25    H8       6.2893  -10.8773    0.5146 H       1  LIG   0.0745   0.0000 
26    H9       4.7266  -11.3071   -0.1866 H       1  LIG   0.0791   0.0000 
27    H10      6.1790  -11.2797   -1.2096 H       1  LIG   0.1068   0.0000 
28    H11      6.3899   -8.8295   -0.8497 H       1  LIG   0.0737   0.0000 
29    H12      4.3953   -8.1275   -2.2197 H       1  LIG   0.0280   0.0000 
30    H13      5.0287   -9.6715   -2.8042 H       1  LIG   0.1074   0.0000 
31    H14      3.5690   -9.6251   -1.7951 H       1  LIG   0.0863   0.0000 
32    H15      5.4595   -2.4754    0.4944 H       1  LIG   0.1438   0.1500 
33    H16      4.9042   -0.1405    0.9471 H       1  LIG   0.1898   0.1500 
34    H17      0.7056   -1.1249    0.9645 H       1  LIG   0.1948   0.1500 
35    H18      1.2559   -3.4693    0.4724 H       1  LIG   0.1646   0.1500 
@<TRIPOS>BOND
1     1     2     1
2     1     25    1
3     1     26    1
4     1     27    1
5     2     3     1
6     2     4     1
7     2     28    1
8     3     29    1
9     3     30    1
10    3     31    1
11    4     5     2
12    4     18    1
13    5     6     1
14    5     7     1
15    6     19    1
16    6     20    1
17    7     8     1
18    7     21    1
19    8     9     1
20    8     10    2
21    9     22    1
22    9     23    1
23    10    11    1
24    10    24    1
25    11    16    ar
26    11    12    ar
27    12    13    ar
28    12    32    1
29    13    14    ar
30    13    33    1
31    14    15    ar
32    14    17    1
33    15    16    ar
34    15    34    1
35    16    35    1
@<TRIPOS>SUBSTRUCTURE
1   LIG    1    
 
########## Number      : 221
########## Name        : ZINC00001128
########## Description : AM1BCC_CHARGES =   0.9998 ORIGINAL_CHARGES =   1.0000

@<TRIPOS>MOLECULE
ZINC00001128
38    39    1     0     0    
SMALL
USER_CHARGES
****
****
@<TRIPOS>ATOM
1     C1       7.4286   -8.4085   -0.4021 C.3     1  LIG   0.0828   0.5030 
2     C2       7.2915   -9.4346    1.8531 C.3     1  LIG   0.0829   0.5030 
3     C3       6.0892   -7.2676    1.3664 C.3     1  LIG   0.0534   0.5030 
4     C4       4.9260   -7.4632    2.3443 C.3     1  LIG   0.2147   0.3691 
5     N1       4.3078   -6.1777    2.7040 N.pl3   1  LIG  -0.7547  -0.8382 
6     C5       3.0395   -5.8256    2.0518 C.3     1  LIG   0.2761   0.5491 
7     C6       3.1701   -5.2172    0.6821 C.2     1  LIG  -0.1871  -0.1400 
8     C7       3.5850   -3.9431    0.3390 C.2     1  LIG  -0.1204  -0.1500 
9     C8       3.5893   -3.7308   -1.0718 C.2     1  LIG  -0.1477  -0.1500 
10    C9       3.1723   -4.8525   -1.7382 C.2     1  LIG  -0.0127   0.1640 
11    S1       2.7765   -6.1390   -0.7149 S.3     1  LIG   0.0065  -0.0800 
12    Cl1      3.0279   -5.0424   -3.4390 Cl      1  LIG   0.0020  -0.1240 
13    C10      4.9826   -5.3458    3.5968 C.ar    1  LIG   0.6294   0.4100 
14    C11      4.5099   -4.0748    3.9412 C.ar    1  LIG  -0.2782  -0.1500 
15    C12      5.2172   -3.2750    4.8425 C.ar    1  LIG  -0.0531  -0.1500 
16    C13      6.3928   -3.7405    5.4025 C.ar    1  LIG  -0.2615  -0.1500 
17    C14      6.8104   -4.9988    5.0300 C.ar    1  LIG   0.4351   0.1600 
18    N2       6.1421   -5.7898    4.1584 N.ar    1  LIG  -0.7596  -0.6200 
19    H1       6.8334   -7.8783   -1.1503 H       1  LIG   0.1050   0.0000 
20    H2       8.3153   -7.8327   -0.1236 H       1  LIG   0.1076   0.0000 
21    H3       7.7037   -9.3959   -0.7823 H       1  LIG   0.1025   0.0000 
22    H4       6.5910   -9.6759    2.6548 H       1  LIG   0.1084   0.0000 
23    H5       7.6203  -10.3590    1.3704 H       1  LIG   0.0992   0.0000 
24    H6       8.1460   -8.8670    2.2310 H       1  LIG   0.1112   0.0000 
25    H7       6.9496   -6.7654    1.8206 H       1  LIG   0.1249   0.0000 
26    H8       5.7640   -6.6780    0.5033 H       1  LIG   0.1047   0.0000 
27    H9       4.1751   -8.1162    1.8818 H       1  LIG   0.0563   0.0000 
28    H10      5.2488   -7.9893    3.2503 H       1  LIG   0.0872   0.0000 
29    H11      2.4266   -6.7355    1.9857 H       1  LIG   0.0660   0.0000 
30    H12      2.4291   -5.1677    2.6813 H       1  LIG   0.0969   0.0000 
31    H13      3.8780   -3.1929    1.0619 H       1  LIG   0.1687   0.1500 
32    H14      3.8828   -2.8067   -1.5534 H       1  LIG   0.1806   0.1500 
33    H15      3.5958   -3.6634    3.5282 H       1  LIG   0.1523   0.1500 
34    H16      4.8422   -2.2890    5.1019 H       1  LIG   0.1557   0.1500 
35    H17      6.9601   -3.1413    6.1044 H       1  LIG   0.1626   0.1500 
36    H18      7.7234   -5.4259    5.4319 H       1  LIG   0.0282   0.1500 
37    N3       6.5756   -8.5997    0.8252 N.4     1  LIG  -0.6710  -0.9590 
38    H19      5.7495   -9.1324    0.5208 H       1  LIG   0.4449   0.4500 
@<TRIPOS>BOND
1     1     19    1
2     1     20    1
3     1     21    1
4     1     37    1
5     2     22    1
6     2     23    1
7     2     24    1
8     2     37    1
9     3     4     1
10    3     25    1
11    3     26    1
12    3     37    1
13    4     5     1
14    4     27    1
15    4     28    1
16    5     6     1
17    5     13    1
18    6     7     1
19    6     29    1
20    6     30    1
21    7     11    1
22    7     8     2
23    8     9     1
24    8     31    1
25    9     10    2
26    9     32    1
27    10    11    1
28    10    12    1
29    13    18    ar
30    13    14    ar
31    14    15    ar
32    14    33    1
33    15    16    ar
34    15    34    1
35    16    17    ar
36    16    35    1
37    17    18    ar
38    17    36    1
39    37    38    1
@<TRIPOS>SUBSTRUCTURE
1   LIG    1    
 
########## Number      : 222
########## Name        : ZINC00001130
########## Description : AM1BCC_CHARGES =   0.0000 ORIGINAL_CHARGES =   0.0000

@<TRIPOS>MOLECULE
ZINC00001130
25    25    1     0     0    
SMALL
USER_CHARGES
****
****
@<TRIPOS>ATOM
1     C1       4.3789   -9.8177    1.5037 C.3     1  LIG  -0.0575   0.1435 
2     C2       3.7798   -8.7230    0.6671 C.ar    1  LIG  -0.0302  -0.1435 
3     C3       2.4136   -8.4351    0.7851 C.ar    1  LIG  -0.2104  -0.1500 
4     C4       1.8258   -7.4209    0.0192 C.ar    1  LIG   0.1355   0.0825 
5     C5       2.5798   -6.6629   -0.8867 C.ar    1  LIG  -0.0915  -0.1435 
6     C6       3.9496   -6.9564   -1.0005 C.ar    1  LIG  -0.0909  -0.1500 
7     C7       4.5417   -7.9703   -0.2362 C.ar    1  LIG  -0.0191   0.1770 
8     Cl1      6.2341   -8.2569   -0.4464 Cl      1  LIG  -0.0987  -0.1770 
9     C8       2.0029   -5.5494   -1.7466 C.3     1  LIG  -0.0074   0.1435 
10    C9       0.9515   -6.0620   -2.7342 C.3     1  LIG  -0.0907   0.0000 
11    C10      1.4618   -4.3880   -0.9089 C.3     1  LIG  -0.0907   0.0000 
12    O1       0.4878   -7.1715    0.1646 O.3     1  LIG  -0.4946  -0.5325 
13    H1       0.1208   -7.7814    0.8266 H       1  LIG   0.4180   0.4500 
14    H2       3.6281  -10.2898    2.1465 H       1  LIG   0.0427   0.0000 
15    H3       4.8002  -10.5997    0.8638 H       1  LIG   0.0570   0.0000 
16    H4       5.1612   -9.4153    2.1552 H       1  LIG   0.0570   0.0000 
17    H5       1.8028   -9.0070    1.4803 H       1  LIG   0.1368   0.1500 
18    H6       4.5644   -6.3863   -1.6952 H       1  LIG   0.1491   0.1500 
19    H7       2.8176   -5.1338   -2.3555 H       1  LIG   0.0464   0.0000 
20    H8       0.6503   -5.2629   -3.4205 H       1  LIG   0.0331   0.0000 
21    H9       1.3488   -6.8871   -3.3356 H       1  LIG   0.0345   0.0000 
22    H10      0.0474   -6.4199   -2.2322 H       1  LIG   0.0521   0.0000 
23    H11      1.1715   -3.5529   -1.5559 H       1  LIG   0.0330   0.0000 
24    H12      0.5807   -4.6704   -0.3246 H       1  LIG   0.0520   0.0000 
25    H13      2.2224   -4.0213   -0.2107 H       1  LIG   0.0345   0.0000 
@<TRIPOS>BOND
1     1     2     1
2     1     14    1
3     1     15    1
4     1     16    1
5     2     7     ar
6     2     3     ar
7     3     4     ar
8     3     17    1
9     4     5     ar
10    4     12    1
11    5     6     ar
12    5     9     1
13    6     7     ar
14    6     18    1
15    7     8     1
16    9     10    1
17    9     11    1
18    9     19    1
19    10    20    1
20    10    21    1
21    10    22    1
22    11    23    1
23    11    24    1
24    11    25    1
25    12    13    1
@<TRIPOS>SUBSTRUCTURE
1   LIG    1    
 
########## Number      : 223
########## Name        : ZINC00001131
########## Description : AM1BCC_CHARGES =   0.0001 ORIGINAL_CHARGES =  -0.0000

@<TRIPOS>MOLECULE
ZINC00001131
18    19    1     0     0    
SMALL
USER_CHARGES
****
****
@<TRIPOS>ATOM
1     C1       2.9993   -7.4269   -2.4924 C.ar    1  LIG  -0.2311  -0.1500 
2     C2       2.1024   -7.7518   -1.4842 C.ar    1  LIG  -0.0863  -0.1500 
3     C3       1.6118   -6.7671   -0.5981 C.ar    1  LIG  -0.1124   0.0000 
4     C4       0.6948   -7.0315    0.4522 C.ar    1  LIG   0.0002   0.1770 
5     C5       0.2478   -6.0130    1.2946 C.ar    1  LIG  -0.0744  -0.1500 
6     C6       0.7095   -4.7193    1.0999 C.ar    1  LIG  -0.0898   0.1770 
7     C7       1.6128   -4.4483    0.0685 C.ar    1  LIG   0.1158   0.0825 
8     C8       2.0787   -5.4460   -0.7912 C.ar    1  LIG   0.3874   0.3100 
9     N1       2.9514   -5.1339   -1.7733 N.ar    1  LIG  -0.6226  -0.6200 
10    C9       3.3899   -6.1119   -2.5935 C.ar    1  LIG   0.4047   0.1600 
11    O1       2.0720   -3.1660   -0.1263 O.3     1  LIG  -0.4544  -0.5325 
12    Cl1      0.1528   -3.4646    2.1451 Cl      1  LIG  -0.0826  -0.1770 
13    Cl2      0.0773   -8.6235    0.7522 Cl      1  LIG  -0.0838  -0.1770 
14    H1       1.6611   -2.5921    0.5437 H       1  LIG   0.4302   0.4500 
15    H2       3.3766   -8.1810   -3.1730 H       1  LIG   0.1499   0.1500 
16    H3       1.7907   -8.7901   -1.4004 H       1  LIG   0.1546   0.1500 
17    H4      -0.4551   -6.2297    2.0956 H       1  LIG   0.1650   0.1500 
18    H5       4.0886   -5.7929   -3.3599 H       1  LIG   0.0297   0.1500 
@<TRIPOS>BOND
1     1     10    ar
2     1     2     ar
3     1     15    1
4     2     3     ar
5     2     16    1
6     3     8     ar
7     3     4     ar
8     4     5     ar
9     4     13    1
10    5     6     ar
11    5     17    1
12    6     7     ar
13    6     12    1
14    7     8     ar
15    7     11    1
16    8     9     ar
17    9     10    ar
18    10    18    1
19    11    14    1
@<TRIPOS>SUBSTRUCTURE
1   LIG    1    
 
########## Number      : 224
########## Name        : ZINC00001132
########## Description : AM1BCC_CHARGES =   0.0000 ORIGINAL_CHARGES =   0.0000

@<TRIPOS>MOLECULE
ZINC00001132
19    19    1     0     0    
SMALL
USER_CHARGES
****
****
@<TRIPOS>ATOM
1     C1       1.0490   -4.6530   -2.6235 C.3     1  LIG  -0.0586   0.1435 
2     C2       0.0031   -5.7306   -2.5317 C.ar    1  LIG  -0.0233  -0.1435 
3     C3      -0.4098   -6.3753   -3.7069 C.ar    1  LIG  -0.2151  -0.1500 
4     C4      -1.3757   -7.3761   -3.6535 C.ar    1  LIG   0.1332   0.0825 
5     C5      -1.9460   -7.7536   -2.4423 C.ar    1  LIG  -0.1587  -0.1500 
6     C6      -1.5542   -7.1280   -1.2504 C.ar    1  LIG  -0.0283  -0.1435 
7     C7      -0.5756   -6.1139   -1.3036 C.ar    1  LIG  -0.0248   0.1770 
8     Cl1     -0.0766   -5.3264    0.1623 Cl      1  LIG  -0.0992  -0.1770 
9     C8      -2.1919   -7.5615    0.0411 C.3     1  LIG  -0.0587   0.1435 
10    O1      -1.7910   -8.0159   -4.7874 O.3     1  LIG  -0.4957  -0.5325 
11    H1      -1.3080   -7.6480   -5.5469 H       1  LIG   0.4202   0.4500 
12    H2       1.3768   -4.4971   -3.6569 H       1  LIG   0.0429   0.0000 
13    H3       0.6487   -3.7007   -2.2611 H       1  LIG   0.0573   0.0000 
14    H4       1.9328   -4.9281   -2.0390 H       1  LIG   0.0572   0.0000 
15    H5       0.0250   -6.0933   -4.6627 H       1  LIG   0.1377   0.1500 
16    H6      -2.6986   -8.5386   -2.4292 H       1  LIG   0.1547   0.1500 
17    H7      -2.9259   -8.3585   -0.1201 H       1  LIG   0.0462   0.0000 
18    H8      -1.4345   -7.9500    0.7294 H       1  LIG   0.0565   0.0000 
19    H9      -2.7186   -6.7226    0.5073 H       1  LIG   0.0565   0.0000 
@<TRIPOS>BOND
1     1     2     1
2     1     12    1
3     1     13    1
4     1     14    1
5     2     7     ar
6     2     3     ar
7     3     4     ar
8     3     15    1
9     4     5     ar
10    4     10    1
11    5     6     ar
12    5     16    1
13    6     7     ar
14    6     9     1
15    7     8     1
16    9     17    1
17    9     18    1
18    9     19    1
19    10    11    1
@<TRIPOS>SUBSTRUCTURE
1   LIG    1    
 
########## Number      : 225
########## Name        : ZINC00001135
########## Description : AM1BCC_CHARGES =   1.0001 ORIGINAL_CHARGES =   1.0000

@<TRIPOS>MOLECULE
ZINC00001135
47    49    1     0     0    
SMALL
USER_CHARGES
****
****
@<TRIPOS>ATOM
1     C1       4.8277   -9.5798   -2.9193 C.3     1  LIG  -0.1345   0.0000 
2     C2       5.1343  -10.5659   -1.8057 C.3     1  LIG   0.1095   0.5030 
3     C3       4.2004  -11.2654    0.4276 C.3     1  LIG   0.1092   0.5030 
4     C4       2.8951  -11.9306    0.0285 C.3     1  LIG  -0.1352   0.0000 
5     C5       5.3411   -9.0319    0.1855 C.3     1  LIG   0.1106   0.5030 
6     C6       4.4423   -8.1130    1.0101 C.3     1  LIG  -0.1600   0.0000 
7     C7       5.2772   -7.0377    1.7223 C.3     1  LIG   0.0511   0.3691 
8     N1       4.4305   -6.1435    2.5481 N.pl3   1  LIG  -0.1603  -0.5691 
9     C8       3.9235   -4.9665    1.9221 C.ar    1  LIG   0.0550   0.1000 
10    C9       3.9644   -4.7737    0.5206 C.ar    1  LIG  -0.1825  -0.1500 
11    C10      3.4569   -3.6261   -0.0987 C.ar    1  LIG  -0.0992  -0.1500 
12    C11      2.8855   -2.6237    0.6645 C.ar    1  LIG  -0.1291  -0.1500 
13    C12      2.8241   -2.7752    2.0437 C.ar    1  LIG  -0.0786  -0.1500 
14    C13      3.3320   -3.9305    2.6718 C.ar    1  LIG  -0.0197   0.1015 
15    S1       3.2064   -3.9544    4.4427 S.3     1  LIG  -0.1065  -0.2030 
16    C14      3.6491   -5.6278    4.8381 C.ar    1  LIG  -0.0205   0.1015 
17    C15      4.2145   -6.5219    3.9068 C.ar    1  LIG   0.0686   0.1000 
18    C16      4.5327   -7.8120    4.3949 C.ar    1  LIG  -0.1875  -0.1500 
19    C17      4.3061   -8.1850    5.7249 C.ar    1  LIG   0.0428   0.1770 
20    C18      3.7537   -7.2872    6.6213 C.ar    1  LIG  -0.1250  -0.1500 
21    C19      3.4278   -6.0122    6.1765 C.ar    1  LIG  -0.0743  -0.1500 
22    Cl1      4.7130   -9.7751    6.2483 Cl      1  LIG  -0.0841  -0.1770 
23    H1       5.2537   -9.9385   -3.8618 H       1  LIG   0.1013   0.0000 
24    H2       3.7475   -9.4693   -3.0602 H       1  LIG   0.0675   0.0000 
25    H3       5.2480   -8.5899   -2.7214 H       1  LIG   0.0654   0.0000 
26    H4       4.7105  -11.5414   -2.0604 H       1  LIG   0.1033   0.0000 
27    H5       6.2098  -10.6815   -1.6352 H       1  LIG   0.1032   0.0000 
28    H6       5.0495  -11.9558    0.3883 H       1  LIG   0.1032   0.0000 
29    H7       4.1112  -10.8751    1.4456 H       1  LIG   0.1053   0.0000 
30    H8       2.6649  -12.7453    0.7226 H       1  LIG   0.1023   0.0000 
31    H9       2.0645  -11.2179    0.0610 H       1  LIG   0.0681   0.0000 
32    H10      2.9400  -12.3557   -0.9780 H       1  LIG   0.0657   0.0000 
33    H11      6.0949   -9.5434    0.7942 H       1  LIG   0.1034   0.0000 
34    H12      5.8519   -8.4504   -0.5880 H       1  LIG   0.1018   0.0000 
35    H13      3.6992   -7.6460    0.3536 H       1  LIG   0.0760   0.0000 
36    H14      3.8674   -8.6909    1.7401 H       1  LIG   0.0764   0.0000 
37    H15      6.0641   -7.5041    2.3291 H       1  LIG   0.0717   0.0000 
38    H16      5.8641   -6.4641    0.9933 H       1  LIG   0.0724   0.0000 
39    H17      4.3830   -5.5192   -0.1487 H       1  LIG   0.1119   0.1500 
40    H18      3.5099   -3.5251   -1.1791 H       1  LIG   0.1387   0.1500 
41    H19      2.4901   -1.7297    0.1925 H       1  LIG   0.1516   0.1500 
42    H20      2.3745   -1.9759    2.6304 H       1  LIG   0.1563   0.1500 
43    H21      4.9555   -8.5717    3.7443 H       1  LIG   0.1246   0.1500 
44    H22      3.5726   -7.5606    7.6566 H       1  LIG   0.1650   0.1500 
45    H23      2.9967   -5.3125    6.8908 H       1  LIG   0.1610   0.1500 
46    N2       4.5017  -10.0997   -0.5033 N.4     1  LIG  -0.6924  -0.9590 
47    H24      3.5998   -9.6673   -0.7457 H       1  LIG   0.4466   0.4500 
@<TRIPOS>BOND
1     1     2     1
2     1     23    1
3     1     24    1
4     1     25    1
5     2     26    1
6     2     27    1
7     2     46    1
8     3     4     1
9     3     28    1
10    3     29    1
11    3     46    1
12    4     30    1
13    4     31    1
14    4     32    1
15    5     6     1
16    5     33    1
17    5     34    1
18    5     46    1
19    6     7     1
20    6     35    1
21    6     36    1
22    7     8     1
23    7     37    1
24    7     38    1
25    8     17    1
26    8     9     1
27    9     14    ar
28    9     10    ar
29    10    11    ar
30    10    39    1
31    11    12    ar
32    11    40    1
33    12    13    ar
34    12    41    1
35    13    14    ar
36    13    42    1
37    14    15    1
38    15    16    1
39    16    21    ar
40    16    17    ar
41    17    18    ar
42    18    19    ar
43    18    43    1
44    19    20    ar
45    19    22    1
46    20    21    ar
47    20    44    1
48    21    45    1
49    46    47    1
@<TRIPOS>SUBSTRUCTURE
1   LIG    1    
 
########## Number      : 226
########## Name        : ZINC00001139
########## Description : AM1BCC_CHARGES =  -0.0002 ORIGINAL_CHARGES =   0.0000

@<TRIPOS>MOLECULE
ZINC00001139
15    16    1     0     0    
SMALL
USER_CHARGES
****
****
@<TRIPOS>ATOM
1     C1      -0.1044   -2.6072   -2.3631 C.ar    1  LIG  -0.1291  -0.1500 
2     C2      -0.3608   -1.3287   -2.8704 C.ar    1  LIG  -0.0853  -0.1500 
3     C3       0.6549   -0.4007   -2.7907 C.ar    1  LIG   0.0431   0.0825 
4     C4       1.8756   -0.7176   -2.2337 C.ar    1  LIG   0.0088   0.1170 
5     C5       2.1683   -1.9618   -1.7238 C.ar    1  LIG  -0.1266  -0.1500 
6     C6       1.1500   -2.9157   -1.7961 C.ar    1  LIG   0.0275   0.1770 
7     Cl1      1.4304   -4.5013   -1.1809 Cl      1  LIG  -0.0812  -0.1770 
8     N1       2.6419    0.4141   -2.3125 N.am    1  LIG  -0.4698  -0.5470 
9     C7       1.8770    1.3978   -2.9145 C.2     1  LIG   0.8194   0.7800 
10    O1       2.2338    2.5447   -3.1509 O.2     1  LIG  -0.5697  -0.5700 
11    O2       0.5975    0.9112   -3.2347 O.3     1  LIG  -0.2882  -0.2325 
12    H1       3.5950    0.5117   -1.9887 H       1  LIG   0.3670   0.3700 
13    H2      -0.8859   -3.3621   -2.4112 H       1  LIG   0.1573   0.1500 
14    H3      -1.3216   -1.0831   -3.3077 H       1  LIG   0.1654   0.1500 
15    H4       3.1364   -2.1851   -1.2910 H       1  LIG   0.1612   0.1500 
@<TRIPOS>BOND
1     1     6     ar
2     1     2     ar
3     1     13    1
4     2     3     ar
5     2     14    1
6     3     11    1
7     3     4     ar
8     4     5     ar
9     4     8     1
10    5     6     ar
11    5     15    1
12    6     7     1
13    8     9     am
14    8     12    1
15    9     10    2
16    9     11    1
@<TRIPOS>SUBSTRUCTURE
1   LIG    1    
 
########## Number      : 227
########## Name        : ZINC00001145
########## Description : AM1BCC_CHARGES =  -0.0002 ORIGINAL_CHARGES =   0.0000

@<TRIPOS>MOLECULE
ZINC00001145
32    33    1     0     0    
SMALL
USER_CHARGES
****
****
@<TRIPOS>ATOM
1     C1       3.6848   -8.3187    2.1493 C.3     1  LIG  -0.0689   0.1382 
2     C2       3.5374   -7.3060    1.0553 C.2     1  LIG   0.0321  -0.1382 
3     C3       2.4304   -6.3734    1.1651 C.2     1  LIG  -0.2626  -0.1500 
4     C4       2.2150   -5.4290    0.2278 C.2     1  LIG   0.1029  -0.0292 
5     N1       3.0882   -5.3813   -0.8410 N.am    1  LIG  -0.2148  -0.1335 
6     C5       4.1733   -6.2090   -1.0435 C.2     1  LIG   0.6825   0.6156 
7     O1       4.9483   -6.1420   -1.9946 O.2     1  LIG  -0.6510  -0.5700 
8     C6       4.3771   -7.2424    0.0096 C.2     1  LIG  -0.2718  -0.1356 
9     O2       2.8717   -4.4025   -1.8251 O.3     1  LIG  -0.3946  -0.4355 
10    C7       1.0475   -4.4616    0.3599 C.3     1  LIG  -0.0228   0.1382 
11    C8      -0.0021   -4.6167   -0.7561 C.3     1  LIG  -0.0765   0.0000 
12    C9      -1.1884   -3.6769   -0.5415 C.3     1  LIG  -0.0762   0.0000 
13    C10     -0.7389   -2.2271   -0.3865 C.3     1  LIG  -0.0788   0.0000 
14    C11      0.2859   -2.0724    0.7332 C.3     1  LIG  -0.0761   0.0000 
15    C12      1.4873   -2.9958    0.5315 C.3     1  LIG  -0.0752   0.0000 
16    H1       3.7814   -4.1240   -2.0296 H       1  LIG   0.4436   0.4000 
17    H2       4.5439   -8.9775    1.9824 H       1  LIG   0.0510   0.0000 
18    H3       3.8305   -7.8237    3.1155 H       1  LIG   0.0554   0.0000 
19    H4       2.7917   -8.9496    2.2133 H       1  LIG   0.0555   0.0000 
20    H5       1.7800   -6.4642    2.0300 H       1  LIG   0.1519   0.1500 
21    H6       5.2155   -7.9186   -0.1098 H       1  LIG   0.1661   0.1500 
22    H7       0.5209   -4.7186    1.2926 H       1  LIG   0.0634   0.0000 
23    H8       0.4315   -4.4052   -1.7394 H       1  LIG   0.0666   0.0000 
24    H9      -0.3643   -5.6516   -0.7888 H       1  LIG   0.0456   0.0000 
25    H10     -1.8805   -3.7598   -1.3872 H       1  LIG   0.0446   0.0000 
26    H11     -1.7414   -3.9857    0.3542 H       1  LIG   0.0375   0.0000 
27    H12     -0.3044   -1.8763   -1.3307 H       1  LIG   0.0442   0.0000 
28    H13     -1.6082   -1.5928   -0.1795 H       1  LIG   0.0408   0.0000 
29    H14      0.6263   -1.0317    0.7802 H       1  LIG   0.0437   0.0000 
30    H15     -0.1888   -2.2961    1.6965 H       1  LIG   0.0383   0.0000 
31    H16      2.1598   -2.9047    1.3934 H       1  LIG   0.0444   0.0000 
32    H17      2.0480   -2.6459   -0.3419 H       1  LIG   0.0590   0.0000 
@<TRIPOS>BOND
1     1     2     1
2     1     17    1
3     1     18    1
4     1     19    1
5     2     8     2
6     2     3     1
7     3     4     2
8     3     20    1
9     4     5     1
10    4     10    1
11    5     6     am
12    5     9     1
13    6     7     2
14    6     8     1
15    8     21    1
16    9     16    1
17    10    15    1
18    10    11    1
19    10    22    1
20    11    12    1
21    11    23    1
22    11    24    1
23    12    13    1
24    12    25    1
25    12    26    1
26    13    14    1
27    13    27    1
28    13    28    1
29    14    15    1
30    14    29    1
31    14    30    1
32    15    31    1
33    15    32    1
@<TRIPOS>SUBSTRUCTURE
1   LIG    1    
 
########## Number      : 228
########## Name        : ZINC00001150
########## Description : AM1BCC_CHARGES =   1.0001 ORIGINAL_CHARGES =   1.0000

@<TRIPOS>MOLECULE
ZINC00001150
45    47    1     0     0    
SMALL
USER_CHARGES
****
****
@<TRIPOS>ATOM
1     C1       4.5314   -7.2456   -2.8152 C.3     1  LIG  -0.1361   0.0000 
2     C2       3.8624   -6.3713   -1.7607 C.3     1  LIG   0.1291   0.5030 
3     C3       4.1453   -6.8868   -0.3566 C.3     1  LIG  -0.1286   0.0000 
4     C4       3.6665   -3.8785   -1.1886 C.3     1  LIG   0.1313   0.5030 
5     C5       4.5108   -3.4221    0.0379 C.3     1  LIG  -0.0824   0.0000 
6     C6       3.6353   -2.4706    0.8710 C.3     1  LIG  -0.0758   0.0000 
7     C7       3.1755   -1.2940    0.0035 C.3     1  LIG  -0.0871   0.0000 
8     C8       3.8400   -1.3615   -1.3900 C.3     1  LIG  -0.0837   0.0000 
9     C9       3.4133   -2.6610   -2.1670 C.3     1  LIG   0.2124   0.4235 
10    C10      1.9699   -2.6660   -2.7001 C.ar    1  LIG  -0.1473  -0.1435 
11    C11      1.4756   -3.8096   -3.3550 C.ar    1  LIG  -0.1253  -0.1500 
12    C12      0.1789   -3.8575   -3.8758 C.ar    1  LIG  -0.1098  -0.1500 
13    C13     -0.6585   -2.7500   -3.7713 C.ar    1  LIG   0.0371   0.1770 
14    C14     -0.1864   -1.5915   -3.1549 C.ar    1  LIG   0.0182   0.1770 
15    C15      1.1170   -1.5511   -2.6354 C.ar    1  LIG  -0.0953  -0.1500 
16    Cl1     -1.1583   -0.1689   -3.0060 Cl      1  LIG  -0.0248  -0.1770 
17    Cl2     -2.2496   -2.8676   -4.4312 Cl      1  LIG  -0.0185  -0.1770 
18    O1       4.2666   -2.7852   -3.3131 O.3     1  LIG  -0.6372  -0.6800 
19    C16      5.3688   -1.3800   -1.1605 C.3     1  LIG  -0.0804   0.0000 
20    C17      5.7677   -2.6473   -0.4007 C.3     1  LIG  -0.0820   0.0000 
21    H1       4.0821   -2.0331   -3.9035 H       1  LIG   0.4532   0.4000 
22    H2       4.1603   -8.2742   -2.7556 H       1  LIG   0.0973   0.0000 
23    H3       4.3200   -6.8744   -3.8240 H       1  LIG   0.0651   0.0000 
24    H4       5.6189   -7.2708   -2.6851 H       1  LIG   0.0693   0.0000 
25    H5       2.7844   -6.3304   -1.9469 H       1  LIG   0.1034   0.0000 
26    H6       3.8264   -7.9302   -0.2591 H       1  LIG   0.0951   0.0000 
27    H7       5.2129   -6.8382   -0.1165 H       1  LIG   0.0659   0.0000 
28    H8       3.5985   -6.3109    0.3963 H       1  LIG   0.0652   0.0000 
29    H9       2.7124   -4.2668   -0.7913 H       1  LIG   0.1115   0.0000 
30    H10      4.8042   -4.2780    0.6544 H       1  LIG   0.0680   0.0000 
31    H11      2.7631   -3.0023    1.2698 H       1  LIG   0.0563   0.0000 
32    H12      4.1963   -2.0996    1.7373 H       1  LIG   0.0766   0.0000 
33    H13      2.0837   -1.3008   -0.0670 H       1  LIG   0.0620   0.0000 
34    H14      3.4404   -0.3514    0.4982 H       1  LIG   0.0748   0.0000 
35    H15      3.6107   -0.4619   -1.9724 H       1  LIG   0.0809   0.0000 
36    H16      2.1024   -4.6861   -3.4880 H       1  LIG   0.1107   0.1500 
37    H17     -0.1590   -4.7665   -4.3677 H       1  LIG   0.1648   0.1500 
38    H18      1.4507   -0.6219   -2.1822 H       1  LIG   0.1627   0.1500 
39    H19      5.9140   -1.3217   -2.1094 H       1  LIG   0.0647   0.0000 
40    H20      5.6691   -0.4949   -0.5856 H       1  LIG   0.0736   0.0000 
41    H21      6.3648   -2.3731    0.4779 H       1  LIG   0.0777   0.0000 
42    H22      6.4186   -3.2670   -1.0264 H       1  LIG   0.0333   0.0000 
43    N1       4.4008   -4.9739   -1.9170 N.4     1  LIG  -0.7623  -0.9060 
44    H23      4.3967   -4.7287   -2.9188 H       1  LIG   0.4686   0.4500 
45    H24      5.3982   -4.9724   -1.6667 H       1  LIG   0.4479   0.4500 
@<TRIPOS>BOND
1     1     2     1
2     1     22    1
3     1     23    1
4     1     24    1
5     2     3     1
6     2     25    1
7     2     43    1
8     3     26    1
9     3     27    1
10    3     28    1
11    4     9     1
12    4     5     1
13    4     29    1
14    4     43    1
15    5     20    1
16    5     6     1
17    5     30    1
18    6     7     1
19    6     31    1
20    6     32    1
21    7     8     1
22    7     33    1
23    7     34    1
24    8     9     1
25    8     19    1
26    8     35    1
27    9     10    1
28    9     18    1
29    10    15    ar
30    10    11    ar
31    11    12    ar
32    11    36    1
33    12    13    ar
34    12    37    1
35    13    14    ar
36    13    17    1
37    14    15    ar
38    14    16    1
39    15    38    1
40    18    21    1
41    19    20    1
42    19    39    1
43    19    40    1
44    20    41    1
45    20    42    1
46    43    44    1
47    43    45    1
@<TRIPOS>SUBSTRUCTURE
1   LIG    1    
 
########## Number      : 229
########## Name        : ZINC00001157
########## Description : AM1BCC_CHARGES =   0.0003 ORIGINAL_CHARGES =   0.0000

@<TRIPOS>MOLECULE
ZINC00001157
32    32    1     0     0    
SMALL
USER_CHARGES
****
****
@<TRIPOS>ATOM
1     C1       5.5445   -8.4005   -0.1367 C.3     1  LIG   0.1113   0.2800 
2     O1       4.1812   -8.0034   -0.2143 O.3     1  LIG  -0.3105  -0.3625 
3     C2       3.8886   -6.6969    0.0812 C.ar    1  LIG   0.1369   0.0825 
4     C3       4.8230   -5.7309    0.4669 C.ar    1  LIG  -0.2110  -0.1500 
5     C4       4.4191   -4.4179    0.7604 C.ar    1  LIG  -0.0181   0.0284 
6     C5       3.0547   -4.0883    0.6994 C.ar    1  LIG  -0.2087  -0.1500 
7     C6       2.1042   -5.0388    0.3165 C.ar    1  LIG   0.1388   0.0825 
8     C7       2.5367   -6.3322   -0.0129 C.ar    1  LIG   0.0485   0.0825 
9     O2       1.6052   -7.2852   -0.3600 O.3     1  LIG  -0.3106  -0.3625 
10    C8       1.4139   -7.2909   -1.7755 C.3     1  LIG   0.1166   0.2800 
11    O3       0.7540   -4.8157    0.2348 O.3     1  LIG  -0.3105  -0.3625 
12    C9       0.2873   -3.5136    0.5653 C.3     1  LIG   0.1101   0.2800 
13    C10      5.3710   -3.3808    1.1961 C.2     1  LIG  -0.0290  -0.1784 
14    C11      6.6325   -3.2810    0.7519 C.2     1  LIG  -0.2344  -0.1356 
15    C12      7.5045   -2.1856    1.2496 C.2     1  LIG   0.6584   0.6156 
16    O4       7.1389   -1.3477    2.0656 O.2     1  LIG  -0.6195  -0.5700 
17    N1       8.7608   -2.2164    0.6964 N.am    1  LIG  -0.6749  -0.8000 
18    H1       9.4481   -1.5183    0.9585 H       1  LIG   0.3179   0.3700 
19    H2       9.0548   -2.9138    0.0213 H       1  LIG   0.3052   0.3700 
20    H3       5.5997   -9.4587   -0.4097 H       1  LIG   0.0706   0.0000 
21    H4       6.1602   -7.8413   -0.8489 H       1  LIG   0.0290   0.0000 
22    H5       5.9271   -8.3006    0.8844 H       1  LIG   0.0388   0.0000 
23    H6       5.8740   -5.9886    0.5588 H       1  LIG   0.1421   0.1500 
24    H7       2.7552   -3.0748    0.9540 H       1  LIG   0.1467   0.1500 
25    H8       0.6698   -8.0581   -2.0091 H       1  LIG   0.0606   0.0000 
26    H9       1.0300   -6.3280   -2.1295 H       1  LIG   0.0321   0.0000 
27    H10      2.3402   -7.5462   -2.3017 H       1  LIG   0.0313   0.0000 
28    H11     -0.8008   -3.5100    0.4494 H       1  LIG   0.0706   0.0000 
29    H12      0.5110   -3.2666    1.6083 H       1  LIG   0.0389   0.0000 
30    H13      0.6965   -2.7623   -0.1181 H       1  LIG   0.0332   0.0000 
31    H14      4.9790   -2.6563    1.9065 H       1  LIG   0.1583   0.1500 
32    H15      7.0451   -3.9710    0.0244 H       1  LIG   0.1316   0.1500 
@<TRIPOS>BOND
1     1     2     1
2     1     20    1
3     1     21    1
4     1     22    1
5     2     3     1
6     3     8     ar
7     3     4     ar
8     4     5     ar
9     4     23    1
10    5     6     ar
11    5     13    1
12    6     7     ar
13    6     24    1
14    7     8     ar
15    7     11    1
16    8     9     1
17    9     10    1
18    10    25    1
19    10    26    1
20    10    27    1
21    11    12    1
22    12    28    1
23    12    29    1
24    12    30    1
25    13    14    2
26    13    31    1
27    14    15    1
28    14    32    1
29    15    16    2
30    15    17    am
31    17    18    1
32    17    19    1
@<TRIPOS>SUBSTRUCTURE
1   LIG    1    
 
########## Number      : 230
########## Name        : ZINC00001162
########## Description : AM1BCC_CHARGES =  -0.0002 ORIGINAL_CHARGES =   0.0000

@<TRIPOS>MOLECULE
ZINC00001162
31    33    1     0     0    
SMALL
USER_CHARGES
****
****
@<TRIPOS>ATOM
1     C1       4.8959   -8.1195    0.8969 C.ar    1  LIG  -0.1264  -0.1500 
2     C2       4.6348   -7.9133    2.2459 C.ar    1  LIG  -0.1233  -0.1500 
3     C3       4.2800   -6.6430    2.6983 C.ar    1  LIG  -0.1203  -0.1500 
4     C4       4.1734   -5.5576    1.8074 C.ar    1  LIG  -0.0411  -0.1435 
5     C5       4.4265   -5.7728    0.4370 C.ar    1  LIG  -0.0355   0.0284 
6     C6       4.7985   -7.0560    0.0000 C.ar    1  LIG  -0.1154  -0.1500 
7     C7       4.3826   -4.7031   -0.5717 C.2     1  LIG  -0.0749  -0.1784 
8     C8       3.5372   -3.6627   -0.6108 C.2     1  LIG  -0.1273  -0.1784 
9     C9       2.4539   -3.3728    0.3386 C.ar    1  LIG  -0.0343   0.0284 
10    C10      1.2830   -2.7906   -0.1774 C.ar    1  LIG  -0.1222  -0.1500 
11    C11      0.2085   -2.4796    0.6554 C.ar    1  LIG  -0.1252  -0.1500 
12    C12      0.2915   -2.7386    2.0177 C.ar    1  LIG  -0.1298  -0.1500 
13    C13      1.4523   -3.3002    2.5476 C.ar    1  LIG  -0.1286  -0.1500 
14    C14      2.5497   -3.6161    1.7226 C.ar    1  LIG  -0.0800  -0.1435 
15    C15      3.8061   -4.1892    2.3674 C.3     1  LIG  -0.0364   0.3480 
16    C16      4.9781   -3.2016    2.3637 C.2     1  LIG   0.6587   0.5690 
17    O1       6.0763   -3.4341    1.8633 O.2     1  LIG  -0.5962  -0.5700 
18    N1       4.7163   -2.0250    3.0327 N.am    1  LIG  -0.6671  -0.8000 
19    H1       5.4301   -1.3081    3.1017 H       1  LIG   0.3093   0.3700 
20    H2       3.8204   -1.8251    3.4636 H       1  LIG   0.3054   0.3700 
21    H3       5.1785   -9.1060    0.5412 H       1  LIG   0.1329   0.1500 
22    H4       4.7122   -8.7383    2.9480 H       1  LIG   0.1327   0.1500 
23    H5       4.0904   -6.5049    3.7605 H       1  LIG   0.1300   0.1500 
24    H6       5.0120   -7.2417   -1.0509 H       1  LIG   0.1326   0.1500 
25    H7       5.1091   -4.7940   -1.3772 H       1  LIG   0.1334   0.1500 
26    H8       3.6236   -2.9715   -1.4472 H       1  LIG   0.1290   0.1500 
27    H9       1.1921   -2.5823   -1.2418 H       1  LIG   0.1359   0.1500 
28    H10     -0.6917   -2.0374    0.2385 H       1  LIG   0.1351   0.1500 
29    H11     -0.5436   -2.4995    2.6697 H       1  LIG   0.1351   0.1500 
30    H12      1.4974   -3.4845    3.6187 H       1  LIG   0.1335   0.1500 
31    H13      3.5837   -4.3350    3.4356 H       1  LIG   0.0802   0.0000 
@<TRIPOS>BOND
1     1     6     ar
2     1     2     ar
3     1     21    1
4     2     3     ar
5     2     22    1
6     3     4     ar
7     3     23    1
8     4     15    1
9     4     5     ar
10    5     6     ar
11    5     7     1
12    6     24    1
13    7     8     2
14    7     25    1
15    8     9     1
16    8     26    1
17    9     14    ar
18    9     10    ar
19    10    11    ar
20    10    27    1
21    11    12    ar
22    11    28    1
23    12    13    ar
24    12    29    1
25    13    14    ar
26    13    30    1
27    14    15    1
28    15    16    1
29    15    31    1
30    16    17    2
31    16    18    am
32    18    19    1
33    18    20    1
@<TRIPOS>SUBSTRUCTURE
1   LIG    1    
 
########## Number      : 231
########## Name        : ZINC00001163
########## Description : AM1BCC_CHARGES =  -0.0001 ORIGINAL_CHARGES =  -0.0000

@<TRIPOS>MOLECULE
ZINC00001163
19    19    1     0     0    
SMALL
USER_CHARGES
****
****
@<TRIPOS>ATOM
1     C1       5.9631   -3.0735    4.4452 C.2     1  LIG  -0.1554  -0.1500 
2     C2       6.8491   -2.1613    3.7990 C.2     1  LIG  -0.1100  -0.1500 
3     C3       6.8054   -2.2820    2.4273 C.2     1  LIG  -0.0952   0.0600 
4     S1       5.7022   -3.4880    1.9320 S.3     1  LIG   0.2222  -0.0800 
5     C4       5.2732   -3.8595    3.5453 C.2     1  LIG  -0.1760  -0.0450 
6     C5       4.3016   -4.8815    3.8519 C.2     1  LIG   0.3947   0.4750 
7     N1       3.7052   -5.5687    2.9318 N.2     1  LIG  -0.4091  -0.5120 
8     N2       2.8223   -6.4873    3.3991 N.pl3   1  LIG  -0.3072  -0.3680 
9     C6       2.1066   -7.2987    2.5391 C.2     1  LIG   0.5885   0.5000 
10    S2       2.1887   -7.3011    0.8674 S.2     1  LIG  -0.4828  -0.3800 
11    N3       1.2628   -8.1654    3.1933 N.pl3   1  LIG  -0.6462  -0.8000 
12    C7       7.5774   -1.5061    1.5135 C.1     1  LIG   0.2614   0.5371 
13    N4       8.2071   -0.8728    0.7725 N.1     1  LIG  -0.3555  -0.5571 
14    H1       2.6985   -6.5655    4.4031 H       1  LIG   0.2952   0.3700 
15    H2       0.6823   -8.8140    2.6727 H       1  LIG   0.3481   0.3700 
16    H3       1.1904   -8.1883    4.2038 H       1  LIG   0.3021   0.3700 
17    H4       5.8429   -3.1440    5.5194 H       1  LIG   0.1580   0.1500 
18    H5       7.4821   -1.4562    4.3244 H       1  LIG   0.1657   0.1500 
19    H6       4.0905   -5.0493    4.9247 H       1  LIG   0.0014   0.0600 
@<TRIPOS>BOND
1     1     5     2
2     1     2     1
3     1     17    1
4     2     3     2
5     2     18    1
6     3     4     1
7     3     12    1
8     4     5     1
9     5     6     1
10    6     7     2
11    6     19    1
12    7     8     1
13    8     9     1
14    8     14    1
15    9     10    2
16    9     11    1
17    11    15    1
18    11    16    1
19    12    13    3
@<TRIPOS>SUBSTRUCTURE
1   LIG    1    
 
########## Number      : 232
########## Name        : ZINC00001164
########## Description : AM1BCC_CHARGES =  -1.0001 ORIGINAL_CHARGES =  -1.0000

@<TRIPOS>MOLECULE
ZINC00001164
31    32    1     0     0    
SMALL
USER_CHARGES
****
****
@<TRIPOS>ATOM
1     C1      -6.4974    0.4128    1.0776 C.3     1  LIG  -0.0901   0.0000 
2     C2      -5.0565   -0.0525    0.7566 C.3     1  LIG  -0.0443   0.1382 
3     C3      -4.8150    0.1569   -0.7612 C.3     1  LIG   0.1408   0.2800 
4     O1      -3.4338    0.0117   -1.0883 O.3     1  LIG  -0.3430  -0.3567 
5     C4      -2.6727    0.9163   -0.3992 C.2     1  LIG   0.0667  -0.0733 
6     C5      -2.9134    1.3319    0.8559 C.2     1  LIG  -0.1343   0.0000 
7     C6      -4.0170    0.7060    1.5898 C.2     1  LIG  -0.0487  -0.1382 
8     C7      -3.9817    0.7389    2.9426 C.2     1  LIG  -0.1722  -0.1238 
9     C8      -2.9388    1.5683    3.6502 C.2     1  LIG   0.5992   0.5412 
10    O2      -2.8259    1.5174    4.8727 O.2     1  LIG  -0.5422  -0.5700 
11    C9      -2.0522    2.4564    2.8376 C.2     1  LIG  -0.3313  -0.2356 
12    C10     -2.0470    2.3079    1.5020 C.2     1  LIG   0.1906   0.0767 
13    O3      -1.2614    3.0554    0.6457 O.3     1  LIG  -0.5569  -0.5267 
14    C11     -1.1723    3.5186    3.5301 C.2     1  LIG   0.9312   1.0500 
15    O4      -0.0469    3.7294    2.9893 O.co2   1  LIG  -0.8690  -0.9000 
16    C12     -4.8735   -0.0448    3.8660 C.3     1  LIG  -0.0548   0.1382 
17    C13     -5.5787   -0.8653   -1.6090 C.3     1  LIG  -0.0941   0.0000 
18    H1      -0.6502    3.5913    1.1846 H       1  LIG   0.4886   0.4500 
19    H2      -6.7595    0.3081    2.1316 H       1  LIG   0.0490   0.0000 
20    H3      -6.6359    1.4679    0.8141 H       1  LIG   0.0447   0.0000 
21    H4      -7.2361   -0.1724    0.5220 H       1  LIG   0.0185   0.0000 
22    H5      -4.9886   -1.1218    1.0239 H       1  LIG   0.0584   0.0000 
23    H6      -5.1774    1.1546   -1.0680 H       1  LIG   0.0460   0.0000 
24    H7      -1.8160    1.2059   -0.9936 H       1  LIG   0.1782   0.1500 
25    H8      -5.3795   -0.8730    3.3628 H       1  LIG   0.0175   0.0000 
26    H9      -4.2926   -0.5055    4.6728 H       1  LIG   0.0677   0.0000 
27    H10     -5.6261    0.6103    4.3157 H       1  LIG   0.0416   0.0000 
28    H11     -6.6620   -0.7594   -1.5139 H       1  LIG   0.0369   0.0000 
29    H12     -5.3191   -0.7464   -2.6671 H       1  LIG   0.0430   0.0000 
30    H13     -5.2987   -1.8877   -1.3320 H       1  LIG   0.0454   0.0000 
31    O5      -1.6842    4.0794    4.5402 O.co2   1  LIG  -0.7832  -0.9000 
@<TRIPOS>BOND
1     1     2     1
2     1     19    1
3     1     20    1
4     1     21    1
5     2     7     1
6     2     3     1
7     2     22    1
8     3     4     1
9     3     17    1
10    3     23    1
11    4     5     1
12    5     6     2
13    5     24    1
14    6     12    1
15    6     7     1
16    7     8     2
17    8     9     1
18    8     16    1
19    9     10    2
20    9     11    1
21    11    12    2
22    11    14    1
23    12    13    1
24    13    18    1
25    14    15    2
26    14    31    1
27    16    25    1
28    16    26    1
29    16    27    1
30    17    28    1
31    17    29    1
32    17    30    1
@<TRIPOS>SUBSTRUCTURE
1   LIG    1    
 
########## Number      : 233
########## Name        : ZINC00001165
########## Description : AM1BCC_CHARGES =  -1.0002 ORIGINAL_CHARGES =  -1.0000

@<TRIPOS>MOLECULE
ZINC00001165
30    32    1     0     0    
SMALL
USER_CHARGES
****
****
@<TRIPOS>ATOM
1     C1       8.4444   -7.9373    3.2382 C.3     1  LIG  -0.0672   0.1382 
2     C2       7.0955   -7.7884    2.6126 C.2     1  LIG   0.1472  -0.0615 
3     C3       6.5955   -8.6684    1.7343 C.2     1  LIG  -0.3494  -0.1356 
4     C4       5.2498   -8.4341    1.1689 C.2     1  LIG   0.6021   0.5412 
5     O1       4.7578   -9.2194    0.3671 O.2     1  LIG  -0.6160  -0.5700 
6     C5       4.5445   -7.2125    1.6191 C.2     1  LIG  -0.3663  -0.1238 
7     C6       5.1665   -6.3998    2.4825 C.2     1  LIG   0.2670   0.0483 
8     O2       6.4098   -6.6570    3.0207 O.3     1  LIG  -0.1430  -0.1534 
9     C7       4.4595   -5.1830    2.9253 C.ar    1  LIG  -0.1323   0.0284 
10    C8       3.0616   -5.1605    2.7226 C.ar    1  LIG   0.1368   0.0825 
11    C9       2.2680   -4.1239    3.2163 C.ar    1  LIG  -0.1914  -0.1500 
12    C10      2.8684   -3.0771    3.8966 C.ar    1  LIG   0.1233   0.0825 
13    C11      4.2499   -3.0495    4.0758 C.ar    1  LIG   0.0488   0.0825 
14    C12      5.0684   -4.0808    3.5731 C.ar    1  LIG  -0.0858  -0.1790 
15    C13      6.5586   -3.9411    3.6916 C.2     1  LIG   0.9181   0.9790 
16    O3       7.2275   -3.9772    2.6138 O.co2   1  LIG  -0.7864  -0.9000 
17    O4       4.7639   -1.9725    4.7540 O.3     1  LIG  -0.5656  -0.5325 
18    O5       2.0745   -2.0740    4.3786 O.3     1  LIG  -0.5134  -0.5325 
19    O6       2.3820   -6.1644    2.0743 O.3     1  LIG  -0.3413  -0.3625 
20    C14      3.1608   -6.9285    1.1410 C.3     1  LIG   0.2110   0.4182 
21    H1       5.6939   -2.1605    4.9774 H       1  LIG   0.4866   0.4500 
22    H2       2.6623   -1.4325    4.8171 H       1  LIG   0.4355   0.4500 
23    H3       8.3512   -7.9985    4.3272 H       1  LIG   0.0657   0.0000 
24    H4       8.9616   -8.8384    2.8930 H       1  LIG   0.0409   0.0000 
25    H5       9.0716   -7.0741    2.9933 H       1  LIG   0.0995   0.0000 
26    H6       7.1346   -9.5523    1.4164 H       1  LIG   0.1494   0.1500 
27    H7       1.1917   -4.1376    3.0699 H       1  LIG   0.1515   0.1500 
28    H8       3.1853   -6.3965    0.1825 H       1  LIG   0.0379   0.0000 
29    H9       2.6107   -7.8625    0.9845 H       1  LIG   0.0783   0.0000 
30    O7       7.0141   -3.7489    4.8612 O.co2   1  LIG  -0.8417  -0.9000 
@<TRIPOS>BOND
1     1     2     1
2     1     23    1
3     1     24    1
4     1     25    1
5     2     8     1
6     2     3     2
7     3     4     1
8     3     26    1
9     4     5     2
10    4     6     1
11    6     20    1
12    6     7     2
13    7     8     1
14    7     9     1
15    9     14    ar
16    9     10    ar
17    10    11    ar
18    10    19    1
19    11    12    ar
20    11    27    1
21    12    13    ar
22    12    18    1
23    13    14    ar
24    13    17    1
25    14    15    1
26    15    16    2
27    15    30    1
28    17    21    1
29    18    22    1
30    19    20    1
31    20    28    1
32    20    29    1
@<TRIPOS>SUBSTRUCTURE
1   LIG    1    
 
########## Number      : 234
########## Name        : ZINC00001167
########## Description : AM1BCC_CHARGES =  -0.0001 ORIGINAL_CHARGES =   0.0000

@<TRIPOS>MOLECULE
ZINC00001167
38    39    1     0     0    
SMALL
USER_CHARGES
****
****
@<TRIPOS>ATOM
1     C1       3.6924   10.8887   12.1619 C.3     1  LIG   0.2051   0.3691 
2     N1       2.9962   10.5255   10.9355 N.pl3   1  LIG  -0.6876  -0.8382 
3     C2       3.7670    9.8449    9.9038 C.3     1  LIG   0.1963   0.3691 
4     C3       1.7293   11.0336   10.6634 C.ar    1  LIG   0.2724   0.1000 
5     C4       1.3635   12.3144   11.1362 C.ar    1  LIG  -0.2245  -0.1500 
6     C5       0.1198   12.8933   10.8549 C.ar    1  LIG  -0.0469  -0.1500 
7     C6      -0.8119   12.2036   10.0937 C.ar    1  LIG  -0.2219  -0.1500 
8     C7      -0.4953   10.9351    9.6305 C.ar    1  LIG   0.1825   0.1900 
9     C8       0.7512   10.3510    9.9059 C.ar    1  LIG  -0.2639   0.0862 
10    C9       0.9330    8.9494    9.4712 C.2     1  LIG   0.7005   0.5438 
11    O1       1.1101    8.0811   10.3178 O.2     1  LIG  -0.5130  -0.5700 
12    N2       0.8743    8.7703    8.0929 N.am    1  LIG  -0.6118  -0.4900 
13    C10      1.0343    7.5427    7.4288 C.2     1  LIG   0.7805   0.6900 
14    O2       1.2607    6.4847    8.0086 O.2     1  LIG  -0.5673  -0.5700 
15    N3       0.9014    7.7190    6.0491 N.am    1  LIG  -0.4772  -0.5470 
16    C11      1.0012    6.7349    5.0382 C.ar    1  LIG   0.0744   0.1170 
17    C12      1.2646    5.3825    5.2772 C.ar    1  LIG  -0.1364  -0.1500 
18    C13      1.3463    4.4775    4.2131 C.ar    1  LIG  -0.0993  -0.1500 
19    C14      1.1653    4.9211    2.9052 C.ar    1  LIG  -0.0090   0.1770 
20    C15      0.9028    6.2639    2.6506 C.ar    1  LIG  -0.0995  -0.1500 
21    C16      0.8216    7.1653    3.7146 C.ar    1  LIG  -0.1778  -0.1500 
22    Cl1      1.2668    3.8045    1.5992 Cl      1  LIG  -0.0954  -0.1770 
23    F1      -1.4195   10.2614    8.9283 F       1  LIG  -0.1436  -0.1900 
24    H1       0.7108    9.5883    7.5157 H       1  LIG   0.3179   0.3700 
25    H2       0.7062    8.6611    5.7255 H       1  LIG   0.3128   0.3700 
26    H3       3.0107   10.9065   13.0197 H       1  LIG   0.0506   0.0000 
27    H4       4.4730   10.1550   12.3932 H       1  LIG   0.0542   0.0000 
28    H5       4.1727   11.8677   12.0618 H       1  LIG   0.0222   0.0000 
29    H6       3.4799   10.1649    8.8960 H       1  LIG   0.0448   0.0000 
30    H7       4.8347   10.0706   10.0087 H       1  LIG   0.0401   0.0000 
31    H8       3.6551    8.7600    9.9878 H       1  LIG   0.0723   0.0000 
32    H9       2.0653   12.9074   11.7197 H       1  LIG   0.1433   0.1500 
33    H10     -0.1118   13.8857   11.2316 H       1  LIG   0.1404   0.1500 
34    H11     -1.7799   12.6424    9.8748 H       1  LIG   0.1544   0.1500 
35    H12      1.4132    4.9893    6.2764 H       1  LIG   0.1794   0.1500 
36    H13      1.5520    3.4306    4.4218 H       1  LIG   0.1516   0.1500 
37    H14      0.7596    6.6224    1.6348 H       1  LIG   0.1470   0.1500 
38    H15      0.6155    8.2107    3.4951 H       1  LIG   0.1323   0.1500 
@<TRIPOS>BOND
1     1     2     1
2     1     26    1
3     1     27    1
4     1     28    1
5     2     3     1
6     2     4     1
7     3     29    1
8     3     30    1
9     3     31    1
10    4     9     ar
11    4     5     ar
12    5     6     ar
13    5     32    1
14    6     7     ar
15    6     33    1
16    7     8     ar
17    7     34    1
18    8     9     ar
19    8     23    1
20    9     10    1
21    10    11    2
22    10    12    am
23    12    13    am
24    12    24    1
25    13    14    2
26    13    15    am
27    15    16    1
28    15    25    1
29    16    21    ar
30    16    17    ar
31    17    18    ar
32    17    35    1
33    18    19    ar
34    18    36    1
35    19    20    ar
36    19    22    1
37    20    21    ar
38    20    37    1
39    21    38    1
@<TRIPOS>SUBSTRUCTURE
1   LIG    1    
 
########## Number      : 235
########## Name        : ZINC00001175
########## Description : AM1BCC_CHARGES =   0.0001 ORIGINAL_CHARGES =  -0.0000

@<TRIPOS>MOLECULE
ZINC00001175
34    36    1     0     0    
SMALL
USER_CHARGES
****
****
@<TRIPOS>ATOM
1     C1       2.2481   -6.8408   -3.0201 C.3     1  LIG   0.0754   0.3001 
2     N1       2.4821   -5.7971   -2.0224 N.am    1  LIG  -0.3777  -0.4771 
3     C2       3.5190   -4.8321   -2.2737 C.ar    1  LIG   0.0343   0.1170 
4     C3       4.6381   -5.2619   -3.0263 C.ar    1  LIG  -0.1377  -0.1500 
5     C4       5.7123   -4.4196   -3.3122 C.ar    1  LIG  -0.1161  -0.1500 
6     C5       5.6925   -3.1172   -2.8485 C.ar    1  LIG   0.0179   0.1770 
7     C6       4.5966   -2.6518   -2.1254 C.ar    1  LIG  -0.1286  -0.1500 
8     C7       3.4778   -3.4783   -1.8471 C.ar    1  LIG   0.0438   0.1170 
9     N2       2.3561   -2.8710   -1.1653 N.am    1  LIG  -0.2914  -0.2940 
10    C8       1.6099   -3.5243   -0.1787 C.2     1  LIG   0.7148   0.5690 
11    O1       0.5774   -3.0996    0.3445 O.2     1  LIG  -0.5947  -0.5700 
12    C9       2.1240   -4.8737    0.2186 C.3     1  LIG  -0.2282   0.1220 
13    C10      1.7554   -5.8736   -0.8346 C.2     1  LIG   0.7043   0.5690 
14    O2       0.8768   -6.7081   -0.6077 O.2     1  LIG  -0.6024  -0.5700 
15    C11      1.9961   -1.5256   -1.5532 C.ar    1  LIG   0.0406   0.1170 
16    C12      2.0469   -1.1214   -2.9009 C.ar    1  LIG  -0.1383  -0.1500 
17    C13      1.6843    0.1747   -3.2772 C.ar    1  LIG  -0.1203  -0.1500 
18    C14      1.2607    1.0880   -2.3167 C.ar    1  LIG  -0.1337  -0.1500 
19    C15      1.1960    0.7052   -0.9801 C.ar    1  LIG  -0.1183  -0.1500 
20    C16      1.5564   -0.5913   -0.6012 C.ar    1  LIG  -0.1245  -0.1500 
21    Cl1      7.0202   -2.0699   -3.1677 Cl      1  LIG  -0.0775  -0.1770 
22    H1       2.3589   -6.4374   -4.0315 H       1  LIG   0.0526   0.0000 
23    H2       2.9500   -7.6630   -2.8496 H       1  LIG   0.0309   0.0000 
24    H3       1.2330   -7.2401   -2.9299 H       1  LIG   0.0781   0.0000 
25    H4       4.7163   -6.2880   -3.3796 H       1  LIG   0.1494   0.1500 
26    H5       6.5560   -4.8016   -3.8803 H       1  LIG   0.1555   0.1500 
27    H6       4.6217   -1.6256   -1.7608 H       1  LIG   0.1671   0.1500 
28    H7       3.2013   -4.8633    0.4103 H       1  LIG   0.0953   0.0000 
29    H8       1.6502   -5.1651    1.1637 H       1  LIG   0.1220   0.0000 
30    H9       2.3406   -1.8157   -3.6848 H       1  LIG   0.1421   0.1500 
31    H10      1.7263    0.4666   -4.3228 H       1  LIG   0.1355   0.1500 
32    H11      0.9788    2.0953   -2.6092 H       1  LIG   0.1355   0.1500 
33    H12      0.8685    1.4169   -0.2273 H       1  LIG   0.1377   0.1500 
34    H13      1.5192   -0.8403    0.4563 H       1  LIG   0.1567   0.1500 
@<TRIPOS>BOND
1     1     2     1
2     1     22    1
3     1     23    1
4     1     24    1
5     2     13    am
6     2     3     1
7     3     8     ar
8     3     4     ar
9     4     5     ar
10    4     25    1
11    5     6     ar
12    5     26    1
13    6     7     ar
14    6     21    1
15    7     8     ar
16    7     27    1
17    8     9     1
18    9     10    am
19    9     15    1
20    10    11    2
21    10    12    1
22    12    13    1
23    12    28    1
24    12    29    1
25    13    14    2
26    15    20    ar
27    15    16    ar
28    16    17    ar
29    16    30    1
30    17    18    ar
31    17    31    1
32    18    19    ar
33    18    32    1
34    19    20    ar
35    19    33    1
36    20    34    1
@<TRIPOS>SUBSTRUCTURE
1   LIG    1    
 
########## Number      : 236
########## Name        : ZINC00001178
########## Description : AM1BCC_CHARGES =   0.0002 ORIGINAL_CHARGES =   0.0000

@<TRIPOS>MOLECULE
ZINC00001178
27    28    1     0     0    
SMALL
USER_CHARGES
****
****
@<TRIPOS>ATOM
1     C1       2.6748   -6.9843    2.4779 C.ar    1  LIG  -0.1739  -0.1500 
2     C2       2.5781   -8.3773    2.4402 C.ar    1  LIG  -0.0974  -0.1500 
3     C3       3.1493   -9.0781    1.3820 C.ar    1  LIG  -0.0085   0.1770 
4     C4       3.8148   -8.3956    0.3664 C.ar    1  LIG  -0.0986  -0.1500 
5     C5       3.9101   -7.0002    0.4064 C.ar    1  LIG  -0.1454  -0.1500 
6     C6       3.3387   -6.2811    1.4610 C.ar    1  LIG   0.0668   0.1170 
7     N1       3.3883   -4.8718    1.5845 N.am    1  LIG  -0.4579  -0.5470 
8     C7       3.9444   -3.9696    0.6892 C.2     1  LIG   0.6919   0.5438 
9     O1       4.4394   -4.2141   -0.4058 O.2     1  LIG  -0.6134  -0.5700 
10    C8       3.8817   -2.5451    1.1171 C.ar    1  LIG  -0.2432   0.0862 
11    C9       4.0986   -2.2037    2.4599 C.ar    1  LIG  -0.0427  -0.1500 
12    C10      4.0407   -0.8648    2.8542 C.ar    1  LIG  -0.0780   0.1110 
13    C11      3.7764    0.1411    1.9262 C.ar    1  LIG  -0.0453  -0.1500 
14    C12      3.5770   -0.1929    0.5877 C.ar    1  LIG  -0.1718  -0.1500 
15    C13      3.6375   -1.5276    0.1831 C.ar    1  LIG   0.2110   0.0825 
16    O2       3.4346   -1.7671   -1.1494 O.3     1  LIG  -0.4933  -0.5325 
17    Br1      4.3303   -0.4102    4.6680 Br      1  LIG  -0.0754  -0.1110 
18    Cl1      3.0345  -10.7948    1.3292 Cl      1  LIG  -0.0919  -0.1770 
19    H1       2.9362   -4.4995    2.4153 H       1  LIG   0.3243   0.3700 
20    H2       3.6165   -2.7056   -1.3338 H       1  LIG   0.4609   0.4500 
21    H3       2.2220   -6.4546    3.3133 H       1  LIG   0.1352   0.1500 
22    H4       2.0574   -8.8983    3.2391 H       1  LIG   0.1489   0.1500 
23    H5       4.2663   -8.9346   -0.4626 H       1  LIG   0.1516   0.1500 
24    H6       4.4436   -6.5147   -0.4028 H       1  LIG   0.1781   0.1500 
25    H7       4.3302   -2.9686    3.1970 H       1  LIG   0.1491   0.1500 
26    H8       3.7295    1.1842    2.2271 H       1  LIG   0.1550   0.1500 
27    H9       3.3782    0.5915   -0.1380 H       1  LIG   0.1641   0.1500 
@<TRIPOS>BOND
1     1     6     ar
2     1     2     ar
3     1     21    1
4     2     3     ar
5     2     22    1
6     3     4     ar
7     3     18    1
8     4     5     ar
9     4     23    1
10    5     6     ar
11    5     24    1
12    6     7     1
13    7     8     am
14    7     19    1
15    8     9     2
16    8     10    1
17    10    15    ar
18    10    11    ar
19    11    12    ar
20    11    25    1
21    12    13    ar
22    12    17    1
23    13    14    ar
24    13    26    1
25    14    15    ar
26    14    27    1
27    15    16    1
28    16    20    1
@<TRIPOS>SUBSTRUCTURE
1   LIG    1    
 
########## Number      : 237
########## Name        : ZINC00001181
########## Description : AM1BCC_CHARGES =  -0.0001 ORIGINAL_CHARGES =  -0.0000

@<TRIPOS>MOLECULE
ZINC00001181
31    33    1     0     0    
SMALL
USER_CHARGES
****
****
@<TRIPOS>ATOM
1     C1      -1.2653    4.5730   -0.3283 C.ar    1  LIG  -0.1036  -0.1500 
2     C2      -0.3897    3.5329   -0.0023 C.ar    1  LIG  -0.1183  -0.1500 
3     C3      -0.8321    2.4569    0.7675 C.ar    1  LIG   0.0238   0.1770 
4     C4      -2.1560    2.4243    1.2112 C.ar    1  LIG   0.0162   0.1770 
5     C5      -3.0307    3.4685    0.8824 C.ar    1  LIG  -0.0940  -0.1500 
6     C6      -2.5980    4.5576    0.1082 C.ar    1  LIG  -0.1193   0.0530 
7     C7      -3.5016    5.6518   -0.2405 C.2     1  LIG   0.3155   0.0870 
8     C8      -3.3691    6.8211   -0.9653 C.2     1  LIG  -0.2447  -0.1500 
9     C9      -4.6295    7.4658   -0.9371 C.2     1  LIG  -0.1977  -0.1500 
10    C10     -5.4649    6.6569   -0.1972 C.2     1  LIG   0.2119   0.0550 
11    O1      -4.7833    5.5549    0.2272 O.3     1  LIG  -0.3619  -0.2800 
12    C11     -6.8426    6.7715    0.1779 C.2     1  LIG   0.2908   0.4750 
13    N1      -7.5378    7.7938   -0.1956 N.2     1  LIG  -0.4128  -0.5120 
14    N2      -8.8378    7.8585    0.1837 N.am    1  LIG  -0.2132  -0.2981 
15    C12     -9.5704    6.9034    0.9761 C.3     1  LIG  -0.0444   0.3611 
16    C13    -10.9307    7.5683    1.0245 C.2     1  LIG   0.7028   0.5690 
17    O2     -11.9060    7.1120    1.6036 O.2     1  LIG  -0.5648  -0.5700 
18    N3     -10.8751    8.7427    0.3213 N.am    1  LIG  -0.6094  -0.4900 
19    C14     -9.6206    8.9534   -0.2041 C.2     1  LIG   0.8186   0.6900 
20    O3      -9.2791    9.9171   -0.8760 O.2     1  LIG  -0.5554  -0.5700 
21    Cl1     -2.7738    1.1239    2.1682 Cl      1  LIG  -0.0640  -0.1770 
22    Cl2      0.2983    1.2039    1.1360 Cl      1  LIG  -0.0615  -0.1770 
23    H1     -11.6551    9.3764    0.2018 H       1  LIG   0.3648   0.3700 
24    H2      -0.8829    5.3943   -0.9303 H       1  LIG   0.1456   0.1500 
25    H3       0.6371    3.5776   -0.3578 H       1  LIG   0.1552   0.1500 
26    H4      -4.0590    3.4256    1.2374 H       1  LIG   0.1647   0.1500 
27    H5      -2.4747    7.1748   -1.4586 H       1  LIG   0.1667   0.1500 
28    H6      -4.8944    8.4059   -1.4007 H       1  LIG   0.1809   0.1500 
29    H7      -7.2515    5.9491    0.7890 H       1  LIG   0.0134   0.0600 
30    H8      -9.6319    5.9429    0.4600 H       1  LIG   0.1044   0.0000 
31    H9      -9.1446    6.8293    1.9790 H       1  LIG   0.0896   0.0000 
@<TRIPOS>BOND
1     1     6     ar
2     1     2     ar
3     1     24    1
4     2     3     ar
5     2     25    1
6     3     4     ar
7     3     22    1
8     4     5     ar
9     4     21    1
10    5     6     ar
11    5     26    1
12    6     7     1
13    7     11    1
14    7     8     2
15    8     9     1
16    8     27    1
17    9     10    2
18    9     28    1
19    10    11    1
20    10    12    1
21    12    13    2
22    12    29    1
23    13    14    1
24    14    19    am
25    14    15    1
26    15    16    1
27    15    30    1
28    15    31    1
29    16    17    2
30    16    18    am
31    18    19    am
32    18    23    1
33    19    20    2
@<TRIPOS>SUBSTRUCTURE
1   LIG    1    
 
########## Number      : 238
########## Name        : ZINC00001186
########## Description : AM1BCC_CHARGES =   0.0001 ORIGINAL_CHARGES =   0.0000

@<TRIPOS>MOLECULE
ZINC00001186
33    34    1     0     0    
SMALL
USER_CHARGES
****
****
@<TRIPOS>ATOM
1     C1       3.7409   -4.4131    5.3015 C.ar    1  LIG  -0.0507  -0.1500 
2     C2       3.7842   -4.5256    3.9101 C.ar    1  LIG  -0.1759  -0.1500 
3     C3       4.6656   -3.7285    3.1774 C.ar    1  LIG   0.1274   0.0825 
4     C4       5.4723   -2.7957    3.8288 C.ar    1  LIG  -0.1518  -0.1500 
5     C5       5.4292   -2.6828    5.2210 C.ar    1  LIG  -0.0762  -0.1500 
6     C6       4.5655   -3.4939    5.9668 C.ar    1  LIG  -0.1942   0.0862 
7     C7       4.4874   -3.4064    7.4563 C.2     1  LIG   0.5725   0.4228 
8     O1       3.7064   -4.1451    8.0515 O.2     1  LIG  -0.5007  -0.5700 
9     C8       5.3800   -2.4067    8.1608 C.3     1  LIG  -0.0764   0.3510 
10    Cl1      5.1294   -2.4745    9.9174 Cl      1  LIG  -0.1421  -0.2900 
11    O2       4.7311   -3.7633    1.8026 O.3     1  LIG  -0.2505  -0.1650 
12    C9       4.8284   -5.0018    1.2093 C.ar    1  LIG   0.1259   0.0825 
13    C10      5.7637   -5.9579    1.6121 C.ar    1  LIG  -0.1754  -0.1500 
14    C11      5.8403   -7.1838    0.9449 C.ar    1  LIG  -0.0736  -0.1500 
15    C12      4.9928   -7.4524   -0.1370 C.ar    1  LIG  -0.1925   0.0862 
16    C13      4.0736   -6.4763   -0.5481 C.ar    1  LIG  -0.0541  -0.1500 
17    C14      3.9974   -5.2518    0.1184 C.ar    1  LIG  -0.1489  -0.1500 
18    C15      5.0422   -8.7493   -0.8772 C.2     1  LIG   0.5724   0.4228 
19    O3       4.2920   -8.9108   -1.8370 O.2     1  LIG  -0.5000  -0.5700 
20    C16      6.0206   -9.8042   -0.4056 C.3     1  LIG  -0.0764   0.3510 
21    Cl2      5.8823  -11.2717   -1.3955 Cl      1  LIG  -0.1420  -0.2900 
22    H1       3.0510   -5.0488    5.8514 H       1  LIG   0.1647   0.1500 
23    H2       3.1222   -5.2305    3.4147 H       1  LIG   0.1554   0.1500 
24    H3       6.1418   -2.1568    3.2586 H       1  LIG   0.1577   0.1500 
25    H4       6.0794   -1.9510    5.6906 H       1  LIG   0.1383   0.1500 
26    H5       6.4307   -2.6403    7.9725 H       1  LIG   0.0870   0.0000 
27    H6       5.1392   -1.3915    7.8363 H       1  LIG   0.0887   0.0000 
28    H7       6.4433   -5.7612    2.4369 H       1  LIG   0.1522   0.1500 
29    H8       6.5762   -7.9035    1.2904 H       1  LIG   0.1382   0.1500 
30    H9       3.4077   -6.6506   -1.3900 H       1  LIG   0.1652   0.1500 
31    H10      3.2850   -4.5016   -0.2140 H       1  LIG   0.1603   0.1500 
32    H11      7.0455   -9.4387   -0.5047 H       1  LIG   0.0882   0.0000 
33    H12      5.8028  -10.0871    0.6271 H       1  LIG   0.0874   0.0000 
@<TRIPOS>BOND
1     1     6     ar
2     1     2     ar
3     1     22    1
4     2     3     ar
5     2     23    1
6     3     4     ar
7     3     11    1
8     4     5     ar
9     4     24    1
10    5     6     ar
11    5     25    1
12    6     7     1
13    7     8     2
14    7     9     1
15    9     10    1
16    9     26    1
17    9     27    1
18    11    12    1
19    12    17    ar
20    12    13    ar
21    13    14    ar
22    13    28    1
23    14    15    ar
24    14    29    1
25    15    16    ar
26    15    18    1
27    16    17    ar
28    16    30    1
29    17    31    1
30    18    19    2
31    18    20    1
32    20    21    1
33    20    32    1
34    20    33    1
@<TRIPOS>SUBSTRUCTURE
1   LIG    1    
 
########## Number      : 239
########## Name        : ZINC00001187
########## Description : AM1BCC_CHARGES =  -1.0002 ORIGINAL_CHARGES =  -1.0000

@<TRIPOS>MOLECULE
ZINC00001187
24    24    1     0     0    
SMALL
USER_CHARGES
****
****
@<TRIPOS>ATOM
1     C1       3.9078   -6.4426   -1.3773 C.3     1  LIG  -0.0928   0.0000 
2     C2       3.2481   -6.6894   -0.0191 C.3     1  LIG  -0.0004   0.1740 
3     C3       1.9162   -7.4422   -0.1233 C.3     1  LIG  -0.0971   0.0000 
4     C4       4.1347   -7.6694    0.8300 C.2     1  LIG   0.9406   0.9060 
5     O1       5.1771   -8.1164    0.2722 O.co2   1  LIG  -0.8186  -0.9000 
6     O2       3.1893   -5.4980    0.7747 O.3     1  LIG  -0.2863  -0.3625 
7     C5       2.3662   -4.4408    0.5350 C.ar    1  LIG   0.1828   0.0825 
8     C6       1.5250   -4.2515   -0.5587 C.ar    1  LIG  -0.2222  -0.1500 
9     C7       0.7386   -3.0977   -0.6586 C.ar    1  LIG  -0.0891  -0.1500 
10    C8       0.7942   -2.1263    0.3380 C.ar    1  LIG  -0.0527   0.1770 
11    C9       1.6320   -2.2978    1.4347 C.ar    1  LIG  -0.0959  -0.1500 
12    C10      2.4134   -3.4510    1.5273 C.ar    1  LIG  -0.1771  -0.1500 
13    Cl1     -0.1745   -0.7094    0.2105 Cl      1  LIG  -0.1474  -0.1770 
14    H1       4.8727   -5.9366   -1.2544 H       1  LIG   0.0515   0.0000 
15    H2       4.0748   -7.3775   -1.9239 H       1  LIG   0.0541   0.0000 
16    H3       3.3085   -5.7983   -2.0242 H       1  LIG  -0.0052   0.0000 
17    H4       1.3477   -7.3823    0.8120 H       1  LIG   0.0539   0.0000 
18    H5       1.2732   -7.0350   -0.9080 H       1  LIG  -0.0022   0.0000 
19    H6       2.0656   -8.5005   -0.3690 H       1  LIG   0.0474   0.0000 
20    H7       1.4497   -4.9704   -1.3639 H       1  LIG   0.1477   0.1500 
21    H8       0.0894   -2.9719   -1.5214 H       1  LIG   0.1273   0.1500 
22    H9       1.6882   -1.5493    2.2200 H       1  LIG   0.1294   0.1500 
23    H10      3.0662   -3.5786    2.3884 H       1  LIG   0.1530   0.1500 
24    O3       3.7069   -7.9043    2.0000 O.co2   1  LIG  -0.8009  -0.9000 
@<TRIPOS>BOND
1     1     2     1
2     1     14    1
3     1     15    1
4     1     16    1
5     2     3     1
6     2     4     1
7     2     6     1
8     3     17    1
9     3     18    1
10    3     19    1
11    4     5     2
12    4     24    1
13    6     7     1
14    7     12    ar
15    7     8     ar
16    8     9     ar
17    8     20    1
18    9     10    ar
19    9     21    1
20    10    11    ar
21    10    13    1
22    11    12    ar
23    11    22    1
24    12    23    1
@<TRIPOS>SUBSTRUCTURE
1   LIG    1    
 
########## Number      : 240
########## Name        : ZINC00001188
########## Description : AM1BCC_CHARGES =   0.0002 ORIGINAL_CHARGES =  -0.0000

@<TRIPOS>MOLECULE
ZINC00001188
31    32    1     0     0    
SMALL
USER_CHARGES
****
****
@<TRIPOS>ATOM
1     C1       6.6372  -10.9388    2.8556 C.ar    1  LIG  -0.1786  -0.1500 
2     C2       6.7080  -12.2182    2.2994 C.ar    1  LIG  -0.0952  -0.1500 
3     C3       5.9466  -12.5223    1.1750 C.ar    1  LIG  -0.0101   0.1770 
4     C4       5.1186  -11.5572    0.6068 C.ar    1  LIG  -0.0965  -0.1500 
5     C5       5.0495  -10.2762    1.1660 C.ar    1  LIG  -0.1472  -0.1500 
6     C6       5.8080   -9.9544    2.2958 C.ar    1  LIG   0.0821   0.1170 
7     N1       5.8031   -8.6893    2.9288 N.am    1  LIG  -0.4774  -0.5470 
8     C7       5.0699   -7.5502    2.5695 C.2     1  LIG   0.7996   0.6900 
9     O1       4.2966   -7.4773    1.6203 O.2     1  LIG  -0.6114  -0.5700 
10    N2       5.3554   -6.5067    3.4608 N.am    1  LIG  -0.4821  -0.5470 
11    C8       4.8310   -5.1927    3.4562 C.ar    1  LIG   0.0881   0.1170 
12    C9       3.9104   -4.7145    2.5240 C.ar    1  LIG  -0.1226  -0.1500 
13    C10      3.4492   -3.3976    2.6013 C.ar    1  LIG  -0.1045  -0.1500 
14    C11      3.9028   -2.5450    3.6105 C.ar    1  LIG   0.0286   0.1770 
15    C12      4.8272   -2.9991    4.5598 C.ar    1  LIG  -0.1306  -0.1435 
16    C13      5.2807   -4.3269    4.4671 C.ar    1  LIG  -0.1464  -0.1500 
17    C14      5.3413   -2.1134    5.6628 C.3     1  LIG   0.6917   1.1635 
18    F1       6.2337   -2.7297    6.4893 F       1  LIG  -0.2427  -0.3400 
19    F2       5.9862   -1.0091    5.1942 F       1  LIG  -0.2271  -0.3400 
20    F3       4.3497   -1.6576    6.4777 F       1  LIG  -0.2268  -0.3400 
21    Cl1      3.2851   -0.9313    3.6383 Cl      1  LIG  -0.0574  -0.1770 
22    Cl2      6.0285  -14.0966    0.4839 Cl      1  LIG  -0.0903  -0.1770 
23    H1       6.4064   -8.6050    3.7407 H       1  LIG   0.3182   0.3700 
24    H2       6.0178   -6.7111    4.2022 H       1  LIG   0.3198   0.3700 
25    H3       7.2401  -10.7207    3.7346 H       1  LIG   0.1336   0.1500 
26    H4       7.3579  -12.9621    2.7522 H       1  LIG   0.1493   0.1500 
27    H5       4.5201  -11.7853   -0.2716 H       1  LIG   0.1523   0.1500 
28    H6       4.3906   -9.5610    0.6873 H       1  LIG   0.1809   0.1500 
29    H7       3.5239   -5.3300    1.7201 H       1  LIG   0.1894   0.1500 
30    H8       2.7313   -3.0488    1.8622 H       1  LIG   0.1600   0.1500 
31    H9       5.9998   -4.6926    5.1992 H       1  LIG   0.1535   0.1500 
@<TRIPOS>BOND
1     1     6     ar
2     1     2     ar
3     1     25    1
4     2     3     ar
5     2     26    1
6     3     4     ar
7     3     22    1
8     4     5     ar
9     4     27    1
10    5     6     ar
11    5     28    1
12    6     7     1
13    7     8     am
14    7     23    1
15    8     9     2
16    8     10    am
17    10    11    1
18    10    24    1
19    11    16    ar
20    11    12    ar
21    12    13    ar
22    12    29    1
23    13    14    ar
24    13    30    1
25    14    15    ar
26    14    21    1
27    15    16    ar
28    15    17    1
29    16    31    1
30    17    18    1
31    17    19    1
32    17    20    1
@<TRIPOS>SUBSTRUCTURE
1   LIG    1    
 
########## Number      : 241
########## Name        : ZINC00001195
########## Description : AM1BCC_CHARGES =  -1.0002 ORIGINAL_CHARGES =  -1.0000

@<TRIPOS>MOLECULE
ZINC00001195
28    29    1     0     0    
SMALL
USER_CHARGES
****
****
@<TRIPOS>ATOM
1     C1       3.3811   -5.2738    3.2870 C.3     1  LIG  -0.0731   0.1435 
2     C2       3.7985   -5.9770    2.0197 C.ar    1  LIG  -0.0630  -0.1435 
3     C3       3.2237   -5.6447    0.7695 C.ar    1  LIG   0.1869   0.1000 
4     C4       3.5598   -6.4035   -0.3671 C.ar    1  LIG  -0.1617  -0.1500 
5     C5       4.5185   -7.4105   -0.3040 C.ar    1  LIG  -0.1088  -0.1500 
6     C6       5.1471   -7.6876    0.9030 C.ar    1  LIG  -0.1692  -0.1500 
7     C7       4.7923   -6.9788    2.0548 C.ar    1  LIG   0.0512   0.1770 
8     Cl1      5.6250   -7.3900    3.5172 Cl      1  LIG  -0.1386  -0.1770 
9     N1       2.2433   -4.6446    0.6063 N.pl3   1  LIG  -0.7079  -0.6000 
10    C8       2.2366   -3.2851    0.9583 C.ar    1  LIG   0.5934   0.4100 
11    C9       3.3927   -2.4990    1.0779 C.ar    1  LIG  -0.2329  -0.1790 
12    C10      3.2562   -1.1713    1.5135 C.ar    1  LIG  -0.0797  -0.1500 
13    C11      2.0038   -0.6455    1.7889 C.ar    1  LIG  -0.2783  -0.1500 
14    C12      0.9163   -1.4713    1.6068 C.ar    1  LIG   0.3700   0.1600 
15    N2       1.0052   -2.7562    1.1988 N.ar    1  LIG  -0.6917  -0.6200 
16    C13      4.7620   -2.9664    0.7041 C.2     1  LIG   0.9126   0.9790 
17    O1       5.6368   -2.9515    1.6239 O.co2   1  LIG  -0.8105  -0.9000 
18    H1       1.3084   -5.0150    0.4704 H       1  LIG   0.4062   0.4000 
19    H2       2.3731   -4.8564    3.2130 H       1  LIG   0.0446   0.0000 
20    H3       3.3365   -5.9709    4.1301 H       1  LIG   0.0328   0.0000 
21    H4       4.0835   -4.4704    3.5261 H       1  LIG   0.1022   0.0000 
22    H5       3.0907   -6.1826   -1.3238 H       1  LIG   0.1265   0.1500 
23    H6       4.7829   -7.9669   -1.1982 H       1  LIG   0.1186   0.1500 
24    H7       5.9079   -8.4633    0.9382 H       1  LIG   0.1250   0.1500 
25    H8       4.1339   -0.5372    1.6189 H       1  LIG   0.1459   0.1500 
26    H9       1.8849    0.3795    2.1188 H       1  LIG   0.1209   0.1500 
27    H10     -0.0918   -1.1153    1.7914 H       1  LIG  -0.0063   0.1500 
28    O2       4.9400   -3.3022   -0.5069 O.co2   1  LIG  -0.8153  -0.9000 
@<TRIPOS>BOND
1     1     2     1
2     1     19    1
3     1     20    1
4     1     21    1
5     2     7     ar
6     2     3     ar
7     3     4     ar
8     3     9     1
9     4     5     ar
10    4     22    1
11    5     6     ar
12    5     23    1
13    6     7     ar
14    6     24    1
15    7     8     1
16    9     10    1
17    9     18    1
18    10    15    ar
19    10    11    ar
20    11    12    ar
21    11    16    1
22    12    13    ar
23    12    25    1
24    13    14    ar
25    13    26    1
26    14    15    ar
27    14    27    1
28    16    17    2
29    16    28    1
@<TRIPOS>SUBSTRUCTURE
1   LIG    1    
 
########## Number      : 242
########## Name        : ZINC00001196
########## Description : AM1BCC_CHARGES =   0.0001 ORIGINAL_CHARGES =   0.0000

@<TRIPOS>MOLECULE
ZINC00001196
18    18    1     0     0    
SMALL
USER_CHARGES
****
****
@<TRIPOS>ATOM
1     C1       3.7126   -8.8447    0.6702 C.3     1  LIG  -0.0801   0.1382 
2     C2       3.6685   -7.8542   -0.4634 C.2     1  LIG   0.1430  -0.0382 
3     C3       2.6487   -7.7362   -1.3362 C.2     1  LIG  -0.1567   0.1544 
4     C4       2.7398   -6.7026   -2.4194 C.2     1  LIG   0.5877   0.5412 
5     C5       3.9783   -5.8574   -2.4587 C.2     1  LIG  -0.1567   0.1544 
6     C6       4.9355   -6.0639   -1.5330 C.2     1  LIG   0.1431  -0.0382 
7     N1       4.7774   -7.0371   -0.5657 N.pl3   1  LIG  -0.6008  -0.6000 
8     C7       6.2264   -5.2926   -1.4520 C.3     1  LIG  -0.0803   0.1382 
9     Cl1      4.0662   -4.6763   -3.7083 Cl      1  LIG  -0.0615  -0.1400 
10    O1       1.8380   -6.5546   -3.2399 O.2     1  LIG  -0.5310  -0.5700 
11    Cl2      1.2206   -8.6973   -1.3059 Cl      1  LIG  -0.0614  -0.1400 
12    H1       5.5223   -7.1594    0.1120 H       1  LIG   0.4535   0.4000 
13    H2       2.8269   -9.4814    0.7342 H       1  LIG   0.0841   0.0000 
14    H3       4.5806   -9.5038    0.5587 H       1  LIG   0.0566   0.0000 
15    H4       3.8045   -8.3170    1.6259 H       1  LIG   0.0599   0.0000 
16    H5       6.3325   -4.5279   -2.2253 H       1  LIG   0.0842   0.0000 
17    H6       6.3017   -4.7883   -0.4823 H       1  LIG   0.0573   0.0000 
18    H7       7.0778   -5.9752   -1.5495 H       1  LIG   0.0592   0.0000 
@<TRIPOS>BOND
1     1     2     1
2     1     13    1
3     1     14    1
4     1     15    1
5     2     7     1
6     2     3     2
7     3     11    1
8     3     4     1
9     4     10    2
10    4     5     1
11    5     9     1
12    5     6     2
13    6     8     1
14    6     7     1
15    7     12    1
16    8     16    1
17    8     17    1
18    8     18    1
@<TRIPOS>SUBSTRUCTURE
1   LIG    1    
 
########## Number      : 243
########## Name        : ZINC00001204
########## Description : AM1BCC_CHARGES =   1.0000 ORIGINAL_CHARGES =   1.0000

@<TRIPOS>MOLECULE
ZINC00001204
27    27    1     0     0    
SMALL
USER_CHARGES
****
****
@<TRIPOS>ATOM
1     C1       1.3482   -8.2117    2.6323 C.3     1  LIG  -0.1366   0.0000 
2     C2       1.9798   -8.5130    1.2584 C.3     1  LIG   0.1568   0.5030 
3     C3       1.0355   -9.4353    0.4835 C.3     1  LIG  -0.1349   0.0000 
4     C4       2.2843   -7.1677    0.5482 C.3     1  LIG  -0.0648   0.1435 
5     C5       2.9801   -7.0370   -0.7979 C.ar    1  LIG  -0.1240  -0.1435 
6     C6       3.4207   -8.1281   -1.5597 C.ar    1  LIG  -0.1740  -0.1500 
7     C7       4.0587   -7.9511   -2.7936 C.ar    1  LIG  -0.1078  -0.1500 
8     C8       4.2727   -6.6752   -3.2989 C.ar    1  LIG  -0.0965  -0.1500 
9     C9       3.8477   -5.5708   -2.5711 C.ar    1  LIG  -0.0980  -0.1500 
10    C10      3.2093   -5.7477   -1.3368 C.ar    1  LIG   0.0232   0.1770 
11    Cl1      2.7153   -4.3080   -0.5049 Cl      1  LIG  -0.0583  -0.1770 
12    H1       3.7458   -9.5535    0.7023 H       1  LIG   0.4704   0.4500 
13    H2       3.9133   -8.6538    2.0766 H       1  LIG   0.4546   0.4500 
14    H3       2.0073   -7.5901    3.2494 H       1  LIG   0.0670   0.0000 
15    H4       0.3983   -7.6772    2.5179 H       1  LIG   0.1016   0.0000 
16    H5       1.1447   -9.1324    3.1916 H       1  LIG   0.0700   0.0000 
17    H6       1.4516   -9.7886   -0.4611 H       1  LIG   0.0783   0.0000 
18    H7       0.7864  -10.3273    1.0708 H       1  LIG   0.0629   0.0000 
19    H8       0.0948   -8.9212    0.2555 H       1  LIG   0.1000   0.0000 
20    H9       1.3184   -6.6527    0.4415 H       1  LIG   0.1106   0.0000 
21    H10      2.8823   -6.5710    1.2529 H       1  LIG   0.0876   0.0000 
22    H11      3.2863   -9.1513   -1.2345 H       1  LIG   0.1187   0.1500 
23    H12      4.3872   -8.8186   -3.3602 H       1  LIG   0.1554   0.1500 
24    H13      4.7674   -6.5418   -4.2564 H       1  LIG   0.1648   0.1500 
25    H14      4.0174   -4.5749   -2.9730 H       1  LIG   0.1725   0.1500 
26    N1       3.2549   -9.2426    1.5480 N.4     1  LIG  -0.8512  -0.8530 
27    H15      3.0843  -10.0849    2.1148 H       1  LIG   0.4517   0.4500 
@<TRIPOS>BOND
1     1     2     1
2     1     14    1
3     1     15    1
4     1     16    1
5     2     3     1
6     2     4     1
7     2     26    1
8     3     17    1
9     3     18    1
10    3     19    1
11    4     5     1
12    4     20    1
13    4     21    1
14    5     10    ar
15    5     6     ar
16    6     7     ar
17    6     22    1
18    7     8     ar
19    7     23    1
20    8     9     ar
21    8     24    1
22    9     10    ar
23    9     25    1
24    10    11    1
25    12    26    1
26    13    26    1
27    26    27    1
@<TRIPOS>SUBSTRUCTURE
1   LIG    1    
 
########## Number      : 244
########## Name        : ZINC00001209
########## Description : AM1BCC_CHARGES =  -0.0002 ORIGINAL_CHARGES =  -0.0000

@<TRIPOS>MOLECULE
ZINC00001209
18    19    1     0     0    
SMALL
USER_CHARGES
****
****
@<TRIPOS>ATOM
1     C1       4.3193   -8.9903   -1.9264 C.ar    1  LIG  -0.2341  -0.1500 
2     C2       3.6312   -9.0918   -0.7252 C.ar    1  LIG  -0.0873  -0.1500 
3     C3       2.9693   -7.9758   -0.1668 C.ar    1  LIG  -0.1118   0.0000 
4     C4       2.2487   -8.0095    1.0554 C.ar    1  LIG  -0.0064   0.1770 
5     C5       1.6169   -6.8683    1.5510 C.ar    1  LIG  -0.0774  -0.1500 
6     C6       1.6920   -5.6796    0.8404 C.ar    1  LIG  -0.2295  -0.1500 
7     C7       2.3995   -5.6420   -0.3619 C.ar    1  LIG   0.1030   0.0825 
8     C8       3.0446   -6.7628   -0.8898 C.ar    1  LIG   0.3831   0.3100 
9     N1       3.7149   -6.6672   -2.0584 N.ar    1  LIG  -0.6248  -0.6200 
10    C9       4.3306   -7.7634   -2.5490 C.ar    1  LIG   0.4018   0.1600 
11    O1       2.4681   -4.4589   -1.0588 O.3     1  LIG  -0.4628  -0.5325 
12    Cl1      2.1095   -9.4559    2.0002 Cl      1  LIG  -0.0933  -0.1770 
13    H1       1.9763   -3.7763   -0.5720 H       1  LIG   0.4186   0.4500 
14    H2       4.8277   -9.8452   -2.3564 H       1  LIG   0.1477   0.1500 
15    H3       3.6193  -10.0592   -0.2292 H       1  LIG   0.1527   0.1500 
16    H4       1.0653   -6.8952    2.4872 H       1  LIG   0.1508   0.1500 
17    H5       1.1994   -4.7925    1.2281 H       1  LIG   0.1423   0.1500 
18    H6       4.8504   -7.6183   -3.4903 H       1  LIG   0.0272   0.1500 
@<TRIPOS>BOND
1     1     10    ar
2     1     2     ar
3     1     14    1
4     2     3     ar
5     2     15    1
6     3     8     ar
7     3     4     ar
8     4     5     ar
9     4     12    1
10    5     6     ar
11    5     16    1
12    6     7     ar
13    6     17    1
14    7     8     ar
15    7     11    1
16    8     9     ar
17    9     10    ar
18    10    18    1
19    11    13    1
@<TRIPOS>SUBSTRUCTURE
1   LIG    1    
 
########## Number      : 245
########## Name        : ZINC00001216
########## Description : AM1BCC_CHARGES =   1.0002 ORIGINAL_CHARGES =   1.0000

@<TRIPOS>MOLECULE
ZINC00001216
30    32    1     0     0    
SMALL
USER_CHARGES
****
****
@<TRIPOS>ATOM
1     C1       5.9795   -7.3978   -2.6706 C.3     1  LIG  -0.0245   0.3461 
2     N1       5.2567   -6.7490   -1.5475 N.pl3   1  LIG  -0.1518  -0.0922 
3     C2       4.4107   -5.7941   -1.7478 C.2     1  LIG   0.4507   0.2538 
4     C3       3.6699   -5.1481   -0.6482 C.ar    1  LIG  -0.3125   0.0862 
5     C4       3.6699   -5.8066    0.6038 C.ar    1  LIG   0.0369  -0.1435 
6     C5       2.9601   -5.2586    1.6726 C.ar    1  LIG  -0.1641  -0.1500 
7     C6       2.2951   -4.0686    1.4568 C.ar    1  LIG   0.2037   0.0825 
8     C7       2.2994   -3.4221    0.2340 C.ar    1  LIG  -0.0613   0.0825 
9     C8       2.9798   -3.9389   -0.8579 C.ar    1  LIG   0.2557   0.0825 
10    O1       3.0617   -3.4032   -2.1100 O.3     1  LIG  -0.3242  -0.3625 
11    C9       2.3696   -2.1912   -2.3742 C.3     1  LIG   0.1142   0.2800 
12    O2       1.5668   -2.2734    0.2888 O.3     1  LIG  -0.3259  -0.3625 
13    C10      1.1107   -2.2715    1.6530 C.3     1  LIG   0.3223   0.5600 
14    O3       1.5668   -3.4100    2.4016 O.3     1  LIG  -0.2989  -0.3625 
15    C11      4.3698   -7.1329    0.7348 C.3     1  LIG  -0.0726   0.1435 
16    C12      5.6002   -7.2001   -0.1617 C.3     1  LIG  -0.0081   0.3461 
17    H1       5.7080   -6.9219   -3.6169 H       1  LIG   0.0881   0.0000 
18    H2       7.0524   -7.2882   -2.4930 H       1  LIG   0.0924   0.0000 
19    H3       5.6978   -8.4536   -2.6892 H       1  LIG   0.0912   0.0000 
20    H4       4.2491   -5.4586   -2.7849 H       1  LIG   0.0792   0.0600 
21    H5       2.9242   -5.7478    2.6402 H       1  LIG   0.1877   0.1500 
22    H6       2.5446   -1.9316   -3.4229 H       1  LIG   0.0896   0.0000 
23    H7       1.2900   -2.3147   -2.2434 H       1  LIG   0.0676   0.0000 
24    H8       2.7616   -1.3711   -1.7644 H       1  LIG   0.0671   0.0000 
25    H9       1.4709   -1.3597    2.1430 H       1  LIG   0.1025   0.0000 
26    H10      0.0147   -2.2625    1.6572 H       1  LIG   0.1025   0.0000 
27    H11      4.6763   -7.3056    1.7731 H       1  LIG   0.1058   0.0000 
28    H12      3.6585   -7.9236    0.4638 H       1  LIG   0.0952   0.0000 
29    H13      5.9821   -8.2251   -0.2140 H       1  LIG   0.0994   0.0000 
30    H14      6.3997   -6.5397    0.1929 H       1  LIG   0.0923   0.0000 
@<TRIPOS>BOND
1     1     2     1
2     1     17    1
3     1     18    1
4     1     19    1
5     2     16    1
6     2     3     2
7     3     4     1
8     3     20    1
9     4     9     ar
10    4     5     ar
11    5     6     ar
12    5     15    1
13    6     7     ar
14    6     21    1
15    7     14    1
16    7     8     ar
17    8     9     ar
18    8     12    1
19    9     10    1
20    10    11    1
21    11    22    1
22    11    23    1
23    11    24    1
24    12    13    1
25    13    14    1
26    13    25    1
27    13    26    1
28    15    16    1
29    15    27    1
30    15    28    1
31    16    29    1
32    16    30    1
@<TRIPOS>SUBSTRUCTURE
1   LIG    1    
 
########## Number      : 246
########## Name        : ZINC00001219
########## Description : AM1BCC_CHARGES =  -0.0002 ORIGINAL_CHARGES =   0.0000

@<TRIPOS>MOLECULE
ZINC00001219
28    31    1     0     0    
SMALL
USER_CHARGES
****
****
@<TRIPOS>ATOM
1     C1       1.1978    4.1802    1.8630 C.ar    1  LIG  -0.1622  -0.1500 
2     C2       0.9355    3.1222    0.9825 C.ar    1  LIG  -0.0469  -0.1500 
3     C3       1.7677    1.9873    1.0161 C.ar    1  LIG  -0.0818   0.0000 
4     C4       2.8204    1.9663    1.9277 C.ar    1  LIG   0.0864   0.1400 
5     C5       3.1105    2.9998    2.8176 C.ar    1  LIG  -0.2061  -0.1500 
6     C6       2.2654    4.1106    2.7578 C.ar    1  LIG   0.1446   0.0825 
7     O1       2.4663    5.1788    3.5906 O.3     1  LIG  -0.4904  -0.5325 
8     O2       3.5170    0.7995    1.8226 O.3     1  LIG  -0.1752  -0.2800 
9     C7       2.9171    0.0667    0.8455 C.2     1  LIG   0.1865   0.0870 
10    C8       1.8394    0.7488    0.3181 C.2     1  LIG  -0.2271  -0.0860 
11    C9       1.0155    0.2063   -0.7389 C.2     1  LIG   0.7702   0.8060 
12    O3       0.0552    0.7977   -1.2188 O.2     1  LIG  -0.5573  -0.5700 
13    O4       1.3907   -1.0713   -1.1943 O.3     1  LIG  -0.3337  -0.2325 
14    C10      2.5006   -1.7553   -0.6398 C.ar    1  LIG   0.2067   0.0825 
15    C11      3.2789   -1.1980    0.3863 C.ar    1  LIG  -0.1668   0.0530 
16    C12      4.3704   -1.9155    0.9041 C.ar    1  LIG  -0.0253  -0.1500 
17    C13      4.6656   -3.1785    0.3873 C.ar    1  LIG  -0.1858  -0.1500 
18    C14      3.8786   -3.7164   -0.6345 C.ar    1  LIG   0.1835   0.0825 
19    C15      2.7925   -3.0151   -1.1575 C.ar    1  LIG  -0.2493  -0.1500 
20    O5       4.2065   -4.9565   -1.1084 O.3     1  LIG  -0.4855  -0.5325 
21    H1       3.2372    4.9928    4.1534 H       1  LIG   0.4235   0.4500 
22    H2       3.5772   -5.1978   -1.8094 H       1  LIG   0.4303   0.4500 
23    H3       0.5595    5.0601    1.8429 H       1  LIG   0.1589   0.1500 
24    H4       0.1017    3.1860    0.2894 H       1  LIG   0.1631   0.1500 
25    H5       3.9425    2.9341    3.5079 H       1  LIG   0.1564   0.1500 
26    H6       4.9873   -1.5041    1.6986 H       1  LIG   0.1559   0.1500 
27    H7       5.5082   -3.7393    0.7828 H       1  LIG   0.1623   0.1500 
28    H8       2.1833   -3.4361   -1.9512 H       1  LIG   0.1649   0.1500 
@<TRIPOS>BOND
1     1     6     ar
2     1     2     ar
3     1     23    1
4     2     3     ar
5     2     24    1
6     3     10    1
7     3     4     ar
8     4     5     ar
9     4     8     1
10    5     6     ar
11    5     25    1
12    6     7     1
13    7     21    1
14    8     9     1
15    9     15    1
16    9     10    2
17    10    11    1
18    11    12    2
19    11    13    1
20    13    14    1
21    14    19    ar
22    14    15    ar
23    15    16    ar
24    16    17    ar
25    16    26    1
26    17    18    ar
27    17    27    1
28    18    19    ar
29    18    20    1
30    19    28    1
31    20    22    1
@<TRIPOS>SUBSTRUCTURE
1   LIG    1    
 
########## Number      : 247
########## Name        : ZINC00001221
########## Description : AM1BCC_CHARGES =  -1.0000 ORIGINAL_CHARGES =  -1.0000

@<TRIPOS>MOLECULE
ZINC00001221
23    23    1     0     0    
SMALL
USER_CHARGES
****
****
@<TRIPOS>ATOM
1     C1       4.6570   -6.3024   -0.9403 C.3     1  LIG  -0.0374   0.1435 
2     C2       3.5779   -6.4970    0.0845 C.ar    1  LIG  -0.1103  -0.1435 
3     C3       3.3439   -7.7671    0.6212 C.ar    1  LIG  -0.1449  -0.1500 
4     C4       2.3354   -7.9607    1.5643 C.ar    1  LIG  -0.1658  -0.1500 
5     C5       1.5488   -6.8867    1.9856 C.ar    1  LIG  -0.0989  -0.1500 
6     C6       1.7491   -5.5978    1.4681 C.ar    1  LIG  -0.1286  -0.1790 
7     C7       2.7562   -5.4321    0.4988 C.ar    1  LIG   0.1402   0.0825 
8     O1       2.9921   -4.1661   -0.0582 O.3     1  LIG  -0.3650  -0.2325 
9     C8       2.1850   -3.8910   -1.1564 C.2     1  LIG   0.6880   0.6590 
10    O2       1.3666   -4.6373   -1.6771 O.2     1  LIG  -0.5618  -0.5700 
11    C9       2.4856   -2.5023   -1.6358 C.3     1  LIG  -0.1544   0.0610 
12    C10      0.8919   -4.4605    1.9608 C.2     1  LIG   0.9182   0.9790 
13    O3       1.4070   -3.2995    1.9786 O.co2   1  LIG  -0.8464  -0.9000 
14    H1       5.3284   -7.1667   -0.9821 H       1  LIG   0.0172   0.0000 
15    H2       4.2146   -6.1660   -1.9319 H       1  LIG   0.0422   0.0000 
16    H3       5.2700   -5.4293   -0.6937 H       1  LIG   0.0400   0.0000 
17    H4       3.9461   -8.6171    0.3103 H       1  LIG   0.1050   0.1500 
18    H5       2.1633   -8.9506    1.9776 H       1  LIG   0.1070   0.1500 
19    H6       0.7787   -7.0667    2.7327 H       1  LIG   0.1560   0.1500 
20    H7       1.8387   -2.2646   -2.4852 H       1  LIG   0.0414   0.0000 
21    H8       2.2871   -1.7831   -0.8372 H       1  LIG   0.1311   0.0000 
22    H9       3.5270   -2.4403   -1.9612 H       1  LIG   0.0489   0.0000 
23    O4      -0.2869   -4.7521    2.3360 O.co2   1  LIG  -0.8217  -0.9000 
@<TRIPOS>BOND
1     1     2     1
2     1     14    1
3     1     15    1
4     1     16    1
5     2     7     ar
6     2     3     ar
7     3     4     ar
8     3     17    1
9     4     5     ar
10    4     18    1
11    5     6     ar
12    5     19    1
13    6     7     ar
14    6     12    1
15    7     8     1
16    8     9     1
17    9     10    2
18    9     11    1
19    11    20    1
20    11    21    1
21    11    22    1
22    12    13    2
23    12    23    1
@<TRIPOS>SUBSTRUCTURE
1   LIG    1    
 
########## Number      : 248
########## Name        : ZINC00001228
########## Description : AM1BCC_CHARGES =   1.0002 ORIGINAL_CHARGES =   1.0000

@<TRIPOS>MOLECULE
ZINC00001228
41    43    1     0     0    
SMALL
USER_CHARGES
****
****
@<TRIPOS>ATOM
1     C1       5.0073  -10.7700    4.0468 C.3     1  LIG   0.0843   0.5030 
2     C2       6.3841   -8.7309    3.7282 C.3     1  LIG   0.1158   0.5030 
3     C3       6.7168   -7.6075    2.7508 C.3     1  LIG  -0.0545   0.1382 
4     C4       5.4846   -6.7635    2.4659 C.2     1  LIG  -0.1681  -0.2764 
5     C5       5.3990   -5.4244    2.6785 C.2     1  LIG  -0.0239  -0.0568 
6     C6       4.1561   -4.6928    2.3384 C.ar    1  LIG  -0.1040   0.0284 
7     C7       3.8818   -4.3299    1.0119 C.ar    1  LIG  -0.1120  -0.1500 
8     C8       2.7137   -3.6320    0.7011 C.ar    1  LIG  -0.1226  -0.1500 
9     C9       1.8202   -3.2923    1.7165 C.ar    1  LIG   0.0308   0.1770 
10    C10      2.0852   -3.6426    3.0401 C.ar    1  LIG  -0.1225  -0.1500 
11    C11      3.2534   -4.3404    3.3511 C.ar    1  LIG  -0.0989  -0.1500 
12    Cl1      0.3789   -2.4317    1.3331 Cl      1  LIG  -0.0580  -0.1770 
13    C12      6.5397   -4.6961    3.2807 C.ar    1  LIG   0.4116   0.3384 
14    C13      7.3112   -3.8290    2.5123 C.ar    1  LIG  -0.2139  -0.1500 
15    C14      8.3594   -3.1557    3.1323 C.ar    1  LIG  -0.0842  -0.1500 
16    C15      8.6049   -3.3582    4.4851 C.ar    1  LIG  -0.2224  -0.1500 
17    C16      7.7817   -4.2359    5.1701 C.ar    1  LIG   0.3966   0.1600 
18    N1       6.7555   -4.9089    4.6034 N.ar    1  LIG  -0.6759  -0.6200 
19    C17      4.3546   -7.6312    1.9350 C.3     1  LIG  -0.0618   0.1382 
20    C18      4.0433   -8.7635    2.9118 C.3     1  LIG   0.1165   0.5030 
21    H1       4.2312  -11.3778    3.5743 H       1  LIG   0.1018   0.0000 
22    H2       5.9298  -11.3491    4.1394 H       1  LIG   0.1023   0.0000 
23    H3       4.6755  -10.3981    5.0200 H       1  LIG   0.1062   0.0000 
24    H4       6.0418   -8.3497    4.6975 H       1  LIG   0.1142   0.0000 
25    H5       7.2562   -9.3767    3.8758 H       1  LIG   0.0963   0.0000 
26    H6       7.5531   -7.0300    3.1536 H       1  LIG   0.1132   0.0000 
27    H7       7.0756   -8.0319    1.8038 H       1  LIG   0.0680   0.0000 
28    H8       4.5735   -4.5877    0.2132 H       1  LIG   0.1400   0.1500 
29    H9       2.5137   -3.3593   -0.3317 H       1  LIG   0.1607   0.1500 
30    H10      1.3940   -3.3780    3.8359 H       1  LIG   0.1613   0.1500 
31    H11      3.4520   -4.6068    4.3868 H       1  LIG   0.1509   0.1500 
32    H12      7.1135   -3.6738    1.4566 H       1  LIG   0.1536   0.1500 
33    H13      8.9821   -2.4732    2.5612 H       1  LIG   0.1565   0.1500 
34    H14      9.4150   -2.8434    4.9888 H       1  LIG   0.1608   0.1500 
35    H15      7.9305   -4.4268    6.2280 H       1  LIG   0.0335   0.1500 
36    H16      3.4304   -7.0737    1.7606 H       1  LIG   0.1123   0.0000 
37    H17      4.6531   -8.0450    0.9632 H       1  LIG   0.0707   0.0000 
38    H18      3.2849   -9.4322    2.4911 H       1  LIG   0.0970   0.0000 
39    H19      3.6989   -8.3874    3.8825 H       1  LIG   0.1081   0.0000 
40    N2       5.2850   -9.5916    3.1461 N.4     1  LIG  -0.6844  -0.9590 
41    H20      5.5838  -10.0115    2.2487 H       1  LIG   0.4443   0.4500 
@<TRIPOS>BOND
1     1     21    1
2     1     22    1
3     1     23    1
4     1     40    1
5     2     3     1
6     2     24    1
7     2     25    1
8     2     40    1
9     3     4     1
10    3     26    1
11    3     27    1
12    4     5     2
13    4     19    1
14    5     6     1
15    5     13    1
16    6     11    ar
17    6     7     ar
18    7     8     ar
19    7     28    1
20    8     9     ar
21    8     29    1
22    9     10    ar
23    9     12    1
24    10    11    ar
25    10    30    1
26    11    31    1
27    13    18    ar
28    13    14    ar
29    14    15    ar
30    14    32    1
31    15    16    ar
32    15    33    1
33    16    17    ar
34    16    34    1
35    17    18    ar
36    17    35    1
37    19    20    1
38    19    36    1
39    19    37    1
40    20    38    1
41    20    39    1
42    20    40    1
43    40    41    1
@<TRIPOS>SUBSTRUCTURE
1   LIG    1    
 
########## Number      : 249
########## Name        : ZINC00001229
########## Description : AM1BCC_CHARGES =   1.9999 ORIGINAL_CHARGES =   2.0000

@<TRIPOS>MOLECULE
ZINC00001229
44    46    1     0     0    
SMALL
USER_CHARGES
****
****
@<TRIPOS>ATOM
1     C1       6.7101   -9.4945    0.5854 C.3     1  LIG   0.0823   0.5030 
2     C2       7.4459   -7.1109    0.4820 C.3     1  LIG   0.0791   0.5030 
3     C3       7.4673   -5.7942    1.2491 C.3     1  LIG   0.0760   0.5030 
4     C4       5.3095   -6.3979    2.3578 C.3     1  LIG   0.0713   0.5030 
5     C5       5.2746   -7.7103    1.5815 C.3     1  LIG   0.0787   0.5030 
6     C6       5.9586   -3.8889    2.0462 C.3     1  LIG   0.3013   0.7900 
7     C7       4.5319   -3.3417    2.0616 C.ar    1  LIG  -0.2044  -0.1435 
8     C8       3.9698   -2.8868    0.8535 C.ar    1  LIG  -0.1236  -0.1500 
9     C9       2.6622   -2.3992    0.8040 C.ar    1  LIG  -0.1117  -0.1500 
10    C10      1.8889   -2.3634    1.9596 C.ar    1  LIG  -0.0595  -0.1500 
11    C11      2.4227   -2.8181    3.1620 C.ar    1  LIG  -0.1194  -0.1500 
12    C12      3.7316   -3.3066    3.2129 C.ar    1  LIG  -0.0864  -0.1500 
13    C13      6.8353   -3.5124    3.2389 C.ar    1  LIG  -0.1864  -0.1435 
14    C14      6.7486   -4.1401    4.4896 C.ar    1  LIG  -0.1335  -0.1500 
15    C15      7.5793   -3.7578    5.5472 C.ar    1  LIG  -0.1156  -0.1500 
16    C16      8.5093   -2.7372    5.3751 C.ar    1  LIG  -0.0661  -0.1500 
17    C17      8.6060   -2.0932    4.1463 C.ar    1  LIG  -0.1062  -0.1500 
18    C18      7.7756   -2.4748    3.0900 C.ar    1  LIG  -0.0965  -0.1500 
19    H1       6.2050  -10.2145    1.2344 H       1  LIG   0.1268   0.0000 
20    H2       6.1972   -9.4043   -0.3758 H       1  LIG   0.1183   0.0000 
21    H3       7.7547   -9.7857    0.4475 H       1  LIG   0.1271   0.0000 
22    H4       8.4638   -7.4868    0.3367 H       1  LIG   0.1516   0.0000 
23    H5       6.9518   -7.0067   -0.4906 H       1  LIG   0.1273   0.0000 
24    H6       7.9944   -5.8922    2.2040 H       1  LIG   0.1410   0.0000 
25    H7       7.9376   -5.0117    0.6453 H       1  LIG   0.1492   0.0000 
26    H8       5.8363   -6.5289    3.3052 H       1  LIG   0.1300   0.0000 
27    H9       4.2924   -6.0419    2.5362 H       1  LIG   0.1643   0.0000 
28    H10      4.7402   -7.6096    0.6301 H       1  LIG   0.1282   0.0000 
29    H11      4.8096   -8.4987    2.1821 H       1  LIG   0.1510   0.0000 
30    H12      6.4262   -3.3619    1.2009 H       1  LIG   0.1036   0.0000 
31    H13      4.5500   -2.9057   -0.0668 H       1  LIG   0.1296   0.1500 
32    H14      2.2487   -2.0481   -0.1374 H       1  LIG   0.1712   0.1500 
33    H15      0.8717   -1.9843    1.9237 H       1  LIG   0.1761   0.1500 
34    H16      1.8185   -2.7953    4.0651 H       1  LIG   0.1717   0.1500 
35    H17      4.0990   -3.6602    4.1704 H       1  LIG   0.1514   0.1500 
36    H18      6.0237   -4.9245    4.6778 H       1  LIG   0.1202   0.1500 
37    H19      7.4941   -4.2555    6.5095 H       1  LIG   0.1661   0.1500 
38    H20      9.1523   -2.4406    6.1986 H       1  LIG   0.1767   0.1500 
39    H21      9.3260   -1.2913    4.0083 H       1  LIG   0.1755   0.1500 
40    H22      7.8734   -1.9482    2.1427 H       1  LIG   0.1476   0.1500 
41    N1       6.6871   -8.1543    1.2704 N.4     1  LIG  -0.6881  -0.9590 
42    H23      7.1772   -8.2830    2.1672 H       1  LIG   0.4641   0.4500 
43    N2       6.0445   -5.3543    1.5455 N.4     1  LIG  -0.7074  -0.9590 
44    H24      5.5634   -5.3240    0.6357 H       1  LIG   0.4474   0.4500 
@<TRIPOS>BOND
1     1     19    1
2     1     20    1
3     1     21    1
4     1     41    1
5     2     3     1
6     2     22    1
7     2     23    1
8     2     41    1
9     3     24    1
10    3     25    1
11    3     43    1
12    4     5     1
13    4     26    1
14    4     27    1
15    4     43    1
16    5     28    1
17    5     29    1
18    5     41    1
19    6     7     1
20    6     13    1
21    6     30    1
22    6     43    1
23    7     12    ar
24    7     8     ar
25    8     9     ar
26    8     31    1
27    9     10    ar
28    9     32    1
29    10    11    ar
30    10    33    1
31    11    12    ar
32    11    34    1
33    12    35    1
34    13    18    ar
35    13    14    ar
36    14    15    ar
37    14    36    1
38    15    16    ar
39    15    37    1
40    16    17    ar
41    16    38    1
42    17    18    ar
43    17    39    1
44    18    40    1
45    41    42    1
46    43    44    1
@<TRIPOS>SUBSTRUCTURE
1   LIG    1    
 
########## Number      : 250
########## Name        : ZINC00001231
########## Description : AM1BCC_CHARGES =   0.0001 ORIGINAL_CHARGES =   0.0000

@<TRIPOS>MOLECULE
ZINC00001231
32    34    1     0     0    
SMALL
USER_CHARGES
****
****
@<TRIPOS>ATOM
1     C1       2.8808   -9.1963   -1.9668 C.3     1  LIG   0.1314   0.2800 
2     O1       3.6539   -8.5209   -0.9700 O.3     1  LIG  -0.3809  -0.4300 
3     C2       4.7821   -9.1689   -0.5532 C.2     1  LIG   0.7578   0.7800 
4     O2       5.1406  -10.2634   -0.9855 O.2     1  LIG  -0.5776  -0.5700 
5     N1       5.5134   -8.4977    0.4103 N.am    1  LIG  -0.4601  -0.4940 
6     C3       5.1738   -7.2715    0.9401 C.2     1  LIG   0.5040   0.2505 
7     N2       5.9805   -6.7004    1.8954 N.pl3   1  LIG  -0.3087   0.0332 
8     C4       5.4354   -5.4967    2.2598 C.ar    1  LIG  -0.0906  -0.1516 
9     C5       5.8379   -4.5215    3.1751 C.ar    1  LIG  -0.0696  -0.1500 
10    C6       5.0207   -3.3841    3.2935 C.ar    1  LIG  -0.1661   0.0862 
11    C7       3.8556   -3.2562    2.5244 C.ar    1  LIG  -0.1045  -0.1500 
12    C8       3.4778   -4.2539    1.6137 C.ar    1  LIG  -0.0954  -0.1500 
13    C9       4.2886   -5.3917    1.4845 C.ar    1  LIG   0.1104   0.2272 
14    N3       4.1431   -6.4942    0.6773 N.2     1  LIG  -0.5676  -0.5653 
15    C10      5.4277   -2.3309    4.2628 C.2     1  LIG   0.6082   0.4838 
16    O3       6.3446   -2.5243    5.0518 O.2     1  LIG  -0.5364  -0.5700 
17    C11      4.6945   -1.0383    4.2825 C.3     1  LIG  -0.2372  -0.1000 
18    C12      4.8987   -0.0382    3.1711 C.3     1  LIG  -0.1165  -0.2000 
19    C13      5.4512    0.2444    4.5333 C.3     1  LIG  -0.1067  -0.2000 
20    H1       6.3595   -8.9445    0.7476 H       1  LIG   0.3501   0.3700 
21    H2       6.8310   -7.1017    2.2651 H       1  LIG   0.3097   0.2700 
22    H3       2.0155   -8.5721   -2.2055 H       1  LIG   0.0748   0.0000 
23    H4       3.4732   -9.3363   -2.8760 H       1  LIG   0.0510   0.0000 
24    H5       2.5244  -10.1573   -1.5839 H       1  LIG   0.0506   0.0000 
25    H6       6.7441   -4.6473    3.7584 H       1  LIG   0.1595   0.1500 
26    H7       3.2096   -2.3871    2.6144 H       1  LIG   0.1402   0.1500 
27    H8       2.5739   -4.1463    1.0225 H       1  LIG   0.1538   0.1500 
28    H9       3.7062   -1.0899    4.7307 H       1  LIG   0.1018   0.1000 
29    H10      5.6038   -0.2725    2.3825 H       1  LIG   0.0788   0.1000 
30    H11      4.0388    0.5343    2.8449 H       1  LIG   0.0732   0.1000 
31    H12      4.9646    1.0079    5.1283 H       1  LIG   0.0745   0.1000 
32    H13      6.5265    0.2011    4.6587 H       1  LIG   0.0882   0.1000 
@<TRIPOS>BOND
1     1     2     1
2     1     22    1
3     1     23    1
4     1     24    1
5     2     3     1
6     3     4     2
7     3     5     am
8     5     6     1
9     5     20    1
10    6     14    2
11    6     7     1
12    7     8     1
13    7     21    1
14    8     13    ar
15    8     9     ar
16    9     10    ar
17    9     25    1
18    10    11    ar
19    10    15    1
20    11    12    ar
21    11    26    1
22    12    13    ar
23    12    27    1
24    13    14    1
25    15    16    2
26    15    17    1
27    17    19    1
28    17    18    1
29    17    28    1
30    18    19    1
31    18    29    1
32    18    30    1
33    19    31    1
34    19    32    1
@<TRIPOS>SUBSTRUCTURE
1   LIG    1    
 
########## Number      : 251
########## Name        : ZINC00001233
########## Description : AM1BCC_CHARGES =   0.0000 ORIGINAL_CHARGES =   0.0000

@<TRIPOS>MOLECULE
ZINC00001233
31    32    1     0     0    
SMALL
USER_CHARGES
****
****
@<TRIPOS>ATOM
1     C1       6.5251   -4.7028    0.4071 C.3     1  LIG  -0.1079   0.0000 
2     C2       5.4676   -5.7920    0.6722 C.3     1  LIG   0.4565   0.6151 
3     N1       6.0574   -7.0274    0.1292 N.2     1  LIG  -0.7380  -0.6960 
4     C3       5.3737   -7.7578   -0.6922 C.2     1  LIG   0.8333   0.7110 
5     N2       4.1020   -7.4549   -1.1158 N.2     1  LIG  -0.8425  -0.6610 
6     C4       3.5469   -6.3355   -0.7380 C.2     1  LIG   0.8487   0.5500 
7     N3       4.1549   -5.4181    0.1055 N.pl3   1  LIG  -0.6926  -0.5191 
8     C5       3.6492   -4.1227    0.3318 C.ar    1  LIG   0.1183   0.1000 
9     C6       3.7276   -3.1467   -0.6778 C.ar    1  LIG  -0.1239  -0.1500 
10    C7       3.2197   -1.8618   -0.4765 C.ar    1  LIG  -0.1211  -0.1500 
11    C8       2.6169   -1.5424    0.7376 C.ar    1  LIG   0.0168   0.1770 
12    C9       2.5137   -2.4979    1.7462 C.ar    1  LIG  -0.1258  -0.1500 
13    C10      3.0241   -3.7821    1.5403 C.ar    1  LIG  -0.1183  -0.1500 
14    Cl1      1.9877    0.0400    0.9905 Cl      1  LIG  -0.0862  -0.1770 
15    N4       2.2786   -6.0462   -1.1758 N.pl3   1  LIG  -0.8981  -0.8500 
16    N5       5.9296   -8.9084   -1.1841 N.pl3   1  LIG  -0.8743  -0.8500 
17    C11      5.3519   -6.0365    2.1871 C.3     1  LIG  -0.0917   0.0000 
18    H1       1.7949   -6.6919   -1.7892 H       1  LIG   0.4276   0.4000 
19    H2       1.7679   -5.2264   -0.8729 H       1  LIG   0.4138   0.4000 
20    H3       6.8636   -9.1908   -0.9130 H       1  LIG   0.4090   0.4000 
21    H4       5.4170   -9.4984   -1.8281 H       1  LIG   0.4089   0.4000 
22    H5       7.5124   -5.0158    0.7680 H       1  LIG   0.0626   0.0000 
23    H6       6.6211   -4.5042   -0.6668 H       1  LIG   0.0427   0.0000 
24    H7       6.2838   -3.7583    0.9063 H       1  LIG   0.0390   0.0000 
25    H8       4.1953   -3.3866   -1.6305 H       1  LIG   0.1544   0.1500 
26    H9       3.3002   -1.1255   -1.2715 H       1  LIG   0.1528   0.1500 
27    H10      2.0348   -2.2605    2.6925 H       1  LIG   0.1513   0.1500 
28    H11      2.9107   -4.5216    2.3290 H       1  LIG   0.1509   0.1500 
29    H12      4.5532   -6.7539    2.4089 H       1  LIG   0.0421   0.0000 
30    H13      6.2832   -6.4499    2.5933 H       1  LIG   0.0578   0.0000 
31    H14      5.1449   -5.1158    2.7407 H       1  LIG   0.0339   0.0000 
@<TRIPOS>BOND
1     1     2     1
2     1     22    1
3     1     23    1
4     1     24    1
5     2     7     1
6     2     3     1
7     2     17    1
8     3     4     2
9     4     5     1
10    4     16    1
11    5     6     2
12    6     7     1
13    6     15    1
14    7     8     1
15    8     13    ar
16    8     9     ar
17    9     10    ar
18    9     25    1
19    10    11    ar
20    10    26    1
21    11    12    ar
22    11    14    1
23    12    13    ar
24    12    27    1
25    13    28    1
26    15    18    1
27    15    19    1
28    16    20    1
29    16    21    1
30    17    29    1
31    17    30    1
32    17    31    1
@<TRIPOS>SUBSTRUCTURE
1   LIG    1    
 
########## Number      : 252
########## Name        : ZINC00001234
########## Description : AM1BCC_CHARGES =   0.0001 ORIGINAL_CHARGES =  -0.0000

@<TRIPOS>MOLECULE
ZINC00001234
20    20    1     0     0    
SMALL
USER_CHARGES
****
****
@<TRIPOS>ATOM
1     C1       6.3085   -9.6048   -1.1802 C.3     1  LIG  -0.0752   0.0000 
2     C2       6.4439   -9.0149    0.2222 C.3     1  LIG  -0.0717   0.0000 
3     C3       5.0776   -9.1706    0.8947 C.3     1  LIG  -0.0786   0.0000 
4     C4       4.0999   -9.4861   -0.2368 C.3     1  LIG  -0.0598   0.3970 
5     C5       4.9563  -10.3099   -1.2015 C.3     1  LIG  -0.0725   0.0000 
6     C6       3.5151   -8.2680   -1.0025 C.2     1  LIG   0.9395   0.9060 
7     O1       4.0426   -7.1482   -0.7615 O.co2   1  LIG  -0.7032  -0.9000 
8     H1       2.3568  -10.6189   -0.4495 H       1  LIG   0.4852   0.4500 
9     H2       3.3708  -11.2361    0.7181 H       1  LIG   0.4126   0.4500 
10    H3       7.1283  -10.2897   -1.4184 H       1  LIG   0.0390   0.0000 
11    H4       6.3274   -8.7999   -1.9244 H       1  LIG   0.0659   0.0000 
12    H5       7.2161   -9.5361    0.7984 H       1  LIG   0.0355   0.0000 
13    H6       6.7378   -7.9611    0.1649 H       1  LIG   0.0679   0.0000 
14    H7       5.1337   -9.9960    1.6164 H       1  LIG   0.0170   0.0000 
15    H8       4.8077   -8.2712    1.4581 H       1  LIG   0.0982   0.0000 
16    H9       4.5536  -10.3599   -2.2187 H       1  LIG   0.0860   0.0000 
17    H10      5.0821  -11.3400   -0.8436 H       1  LIG   0.0201   0.0000 
18    O2       2.5532   -8.5547   -1.7745 O.co2   1  LIG  -0.8068  -0.9000 
19    N1       3.0117  -10.3664    0.3042 N.4     1  LIG  -0.8303  -0.8530 
20    H11      2.4650   -9.8745    1.0231 H       1  LIG   0.4313   0.4500 
@<TRIPOS>BOND
1     1     5     1
2     1     2     1
3     1     10    1
4     1     11    1
5     2     3     1
6     2     12    1
7     2     13    1
8     3     4     1
9     3     14    1
10    3     15    1
11    4     5     1
12    4     6     1
13    4     19    1
14    5     16    1
15    5     17    1
16    6     7     2
17    6     18    1
18    8     19    1
19    9     19    1
20    19    20    1
@<TRIPOS>SUBSTRUCTURE
1   LIG    1    
 
########## Number      : 253
########## Name        : ZINC00001241
########## Description : AM1BCC_CHARGES =  -0.0001 ORIGINAL_CHARGES =   0.0000

@<TRIPOS>MOLECULE
ZINC00001241
15    15    1     0     0    
SMALL
USER_CHARGES
****
****
@<TRIPOS>ATOM
1     C1       3.9959   -5.7630   -0.5108 C.ar    1  LIG  -0.0176  -0.1500 
2     C2       3.6793   -5.0298   -1.6553 C.ar    1  LIG  -0.0870   0.1110 
3     C3       3.4141   -5.6727   -2.8636 C.ar    1  LIG  -0.0099  -0.1500 
4     C4       3.4673   -7.0666   -2.9237 C.ar    1  LIG  -0.1411   0.1110 
5     C5       3.7836   -7.8155   -1.7838 C.ar    1  LIG   0.2265   0.0825 
6     C6       4.0483   -7.1606   -0.5752 C.ar    1  LIG  -0.2278   0.0862 
7     C7       4.3901   -7.8777    0.6749 C.2     1  LIG   0.5793   0.4238 
8     O1       4.4708   -9.0950    0.7622 O.2     1  LIG  -0.4953  -0.5700 
9     O2       3.8357   -9.1809   -1.8426 O.3     1  LIG  -0.4472  -0.5325 
10    Br1      3.1019   -7.9152   -4.5810 Br      1  LIG  -0.0665  -0.1110 
11    Br2      3.6091   -3.1410   -1.5662 Br      1  LIG  -0.0676  -0.1110 
12    H1       3.6261   -9.4570   -2.7516 H       1  LIG   0.4359   0.4500 
13    H2       4.2004   -5.2470    0.4246 H       1  LIG   0.1550   0.1500 
14    H3       3.1682   -5.0930   -3.7500 H       1  LIG   0.1651   0.1500 
15    H4       4.5760   -7.2432    1.5585 H       1  LIG  -0.0019   0.0600 
@<TRIPOS>BOND
1     1     6     ar
2     1     2     ar
3     1     13    1
4     2     3     ar
5     2     11    1
6     3     4     ar
7     3     14    1
8     4     5     ar
9     4     10    1
10    5     6     ar
11    5     9     1
12    6     7     1
13    7     8     2
14    7     15    1
15    9     12    1
@<TRIPOS>SUBSTRUCTURE
1   LIG    1    
 
########## Number      : 254
########## Name        : ZINC00001257
########## Description : AM1BCC_CHARGES =  -0.0002 ORIGINAL_CHARGES =  -0.0000

@<TRIPOS>MOLECULE
ZINC00001257
30    32    1     0     0    
SMALL
USER_CHARGES
****
****
@<TRIPOS>ATOM
1     C1      -1.1741    5.1902    5.9170 C.ar    1  LIG  -0.1330  -0.1500 
2     C2      -0.0869    5.3559    5.0603 C.ar    1  LIG  -0.1109  -0.1500 
3     C3       1.1679    5.6863    5.5749 C.ar    1  LIG  -0.1280  -0.1500 
4     C4       1.3394    5.8604    6.9511 C.ar    1  LIG   0.0416   0.1770 
5     C5       0.2416    5.7109    7.8091 C.ar    1  LIG  -0.1324   0.0862 
6     C6      -1.0126    5.3622    7.2911 C.ar    1  LIG  -0.0952  -0.1500 
7     C7       0.3444    5.8861    9.2841 C.2     1  LIG   0.5391   0.2776 
8     N1       0.0969    4.8411    9.9970 N.2     1  LIG  -0.5682  -0.6960 
9     C8       0.1377    4.9517   11.4404 C.3     1  LIG   0.0402   0.3070 
10    C9       1.5722    5.1005   11.8737 C.2     1  LIG   0.6885   0.5690 
11    O1       2.1567    4.1989   12.4763 O.2     1  LIG  -0.6079  -0.5700 
12    N2       2.1590    6.3234   11.6443 N.am    1  LIG  -0.4730  -0.5470 
13    C10      1.6495    7.3823   10.8664 C.ar    1  LIG   0.0939   0.1170 
14    C11      0.7304    7.2295    9.8137 C.ar    1  LIG  -0.2039   0.0862 
15    C12      0.2550    8.3663    9.1373 C.ar    1  LIG  -0.0701  -0.1500 
16    C13      0.7253    9.6339    9.4789 C.ar    1  LIG  -0.0114   0.1770 
17    C14      1.6779    9.7858   10.4802 C.ar    1  LIG  -0.0821  -0.1500 
18    C15      2.1424    8.6623   11.1640 C.ar    1  LIG  -0.1712  -0.1500 
19    Cl1      0.1421   11.0177    8.6365 Cl      1  LIG  -0.0825  -0.1770 
20    Cl2      2.9284    6.2116    7.5288 Cl      1  LIG  -0.0780  -0.1770 
21    H1       3.0293    6.4942   12.1401 H       1  LIG   0.3279   0.3700 
22    H2      -2.1478    4.9265    5.5137 H       1  LIG   0.1404   0.1500 
23    H3      -0.2147    5.2199    3.9899 H       1  LIG   0.1400   0.1500 
24    H4       2.0063    5.7969    4.8914 H       1  LIG   0.1507   0.1500 
25    H5      -1.8692    5.2324    7.9479 H       1  LIG   0.1464   0.1500 
26    H6      -0.4793    5.7726   11.8236 H       1  LIG   0.0723   0.0000 
27    H7      -0.2620    4.0305   11.8785 H       1  LIG   0.1091   0.0000 
28    H8      -0.4705    8.2707    8.3328 H       1  LIG   0.1595   0.1500 
29    H9       2.0618   10.7679   10.7429 H       1  LIG   0.1532   0.1500 
30    H10      2.8767    8.8016   11.9550 H       1  LIG   0.1448   0.1500 
@<TRIPOS>BOND
1     1     6     ar
2     1     2     ar
3     1     22    1
4     2     3     ar
5     2     23    1
6     3     4     ar
7     3     24    1
8     4     5     ar
9     4     20    1
10    5     6     ar
11    5     7     1
12    6     25    1
13    7     14    1
14    7     8     2
15    8     9     1
16    9     10    1
17    9     26    1
18    9     27    1
19    10    11    2
20    10    12    am
21    12    13    1
22    12    21    1
23    13    18    ar
24    13    14    ar
25    14    15    ar
26    15    16    ar
27    15    28    1
28    16    17    ar
29    16    19    1
30    17    18    ar
31    17    29    1
32    18    30    1
@<TRIPOS>SUBSTRUCTURE
1   LIG    1    
 
########## Number      : 255
########## Name        : ZINC00001258
########## Description : AM1BCC_CHARGES =   0.0001 ORIGINAL_CHARGES =   0.0000

@<TRIPOS>MOLECULE
ZINC00001258
40    43    1     0     0    
SMALL
USER_CHARGES
****
****
@<TRIPOS>ATOM
1     C1       1.7131    1.2531   -3.7540 C.3     1  LIG  -0.0826   0.0000 
2     C2       3.0018    1.2688   -2.9042 C.3     1  LIG  -0.1507   0.0610 
3     C3       3.3873   -0.1511   -2.4926 C.3     1  LIG  -0.0557   0.0000 
4     C4       3.7575   -0.9968   -3.7332 C.3     1  LIG  -0.0373   0.1382 
5     C5       4.3940   -0.2362   -4.8944 C.2     1  LIG  -0.0552  -0.1666 
6     C6       4.5922    1.1039   -4.8498 C.2     1  LIG  -0.0994  -0.2764 
7     C7       4.2337    1.8574   -3.5953 C.3     1  LIG  -0.0293   0.1382 
8     C8       3.9473    3.3635   -3.5881 C.3     1  LIG  -0.0696   0.0000 
9     C9       3.4078    3.5933   -2.1541 C.3     1  LIG  -0.1887   0.0610 
10    C10      2.8132    2.2393   -1.7734 C.2     1  LIG   0.5785   0.4480 
11    O1       2.2477    2.0025   -0.7165 O.2     1  LIG  -0.5181  -0.5700 
12    C11      5.2161    1.8726   -5.9821 C.3     1  LIG  -0.0332   0.1382 
13    C12      6.1266    1.0144   -6.8576 C.3     1  LIG  -0.0364   0.1435 
14    C13      5.5648   -0.3604   -7.1060 C.ar    1  LIG  -0.0278  -0.1435 
15    C14      4.7525   -0.9805   -6.1321 C.ar    1  LIG  -0.0781   0.0284 
16    C15      4.3148   -2.2944   -6.3708 C.ar    1  LIG  -0.0865  -0.1500 
17    C16      4.6664   -2.9716   -7.5414 C.ar    1  LIG  -0.1606  -0.1500 
18    C17      5.4693   -2.3453   -8.4848 C.ar    1  LIG   0.1286   0.0825 
19    C18      5.9272   -1.0491   -8.2744 C.ar    1  LIG  -0.2153  -0.1500 
20    O2       5.8005   -3.0376   -9.6145 O.3     1  LIG  -0.4967  -0.5325 
21    H1       6.3614   -2.4718  -10.1719 H       1  LIG   0.4187   0.4500 
22    H2       1.3596    2.2664   -3.9755 H       1  LIG   0.0362   0.0000 
23    H3       1.8228    0.7330   -4.7093 H       1  LIG   0.0552   0.0000 
24    H4       0.9034    0.7600   -3.2023 H       1  LIG   0.0461   0.0000 
25    H5       4.2436   -0.1252   -1.8049 H       1  LIG   0.0482   0.0000 
26    H6       2.5767   -0.6394   -1.9375 H       1  LIG   0.0575   0.0000 
27    H7       4.4213   -1.8091   -3.4124 H       1  LIG   0.0554   0.0000 
28    H8       2.8293   -1.4617   -4.0901 H       1  LIG   0.0493   0.0000 
29    H9       5.1623    1.7694   -2.9976 H       1  LIG   0.0619   0.0000 
30    H10      4.8412    3.9680   -3.7717 H       1  LIG   0.0501   0.0000 
31    H11      3.1967    3.6378   -4.3376 H       1  LIG   0.0518   0.0000 
32    H12      4.2237    3.8256   -1.4637 H       1  LIG   0.0748   0.0000 
33    H13      2.6453    4.3748   -2.1358 H       1  LIG   0.0757   0.0000 
34    H14      4.4094    2.3034   -6.5887 H       1  LIG   0.0549   0.0000 
35    H15      5.8123    2.7096   -5.6010 H       1  LIG   0.0500   0.0000 
36    H16      6.2994    1.5378   -7.8057 H       1  LIG   0.0507   0.0000 
37    H17      7.1024    0.8959   -6.3689 H       1  LIG   0.0571   0.0000 
38    H18      3.6878   -2.8214   -5.6569 H       1  LIG   0.1365   0.1500 
39    H19      4.3125   -3.9856   -7.7049 H       1  LIG   0.1508   0.1500 
40    H20      6.5696   -0.5695   -9.0083 H       1  LIG   0.1333   0.1500 
@<TRIPOS>BOND
1     1     2     1
2     1     22    1
3     1     23    1
4     1     24    1
5     2     7     1
6     2     10    1
7     2     3     1
8     3     4     1
9     3     25    1
10    3     26    1
11    4     5     1
12    4     27    1
13    4     28    1
14    5     15    1
15    5     6     2
16    6     7     1
17    6     12    1
18    7     8     1
19    7     29    1
20    8     9     1
21    8     30    1
22    8     31    1
23    9     10    1
24    9     32    1
25    9     33    1
26    10    11    2
27    12    13    1
28    12    34    1
29    12    35    1
30    13    14    1
31    13    36    1
32    13    37    1
33    14    19    ar
34    14    15    ar
35    15    16    ar
36    16    17    ar
37    16    38    1
38    17    18    ar
39    17    39    1
40    18    19    ar
41    18    20    1
42    19    40    1
43    20    21    1
@<TRIPOS>SUBSTRUCTURE
1   LIG    1    
 
########## Number      : 256
########## Name        : ZINC00001261
########## Description : AM1BCC_CHARGES =   0.9998 ORIGINAL_CHARGES =   1.0000

@<TRIPOS>MOLECULE
ZINC00001261
42    45    1     0     0    
SMALL
USER_CHARGES
****
****
@<TRIPOS>ATOM
1     C1       5.8608  -10.0125    0.7619 C.ar    1  LIG  -0.2165  -0.1500 
2     C2       5.5236  -10.0281    2.1096 C.ar    1  LIG  -0.1008  -0.1500 
3     C3       5.2732   -8.8352    2.8098 C.ar    1  LIG  -0.1510  -0.1435 
4     C4       5.3707   -7.6443    2.0758 C.ar    1  LIG   0.4156   0.3384 
5     N1       5.7228   -7.6108    0.7609 N.ar    1  LIG  -0.6673  -0.6200 
6     C5       5.9512   -8.7861    0.1388 C.ar    1  LIG   0.3961   0.1600 
7     C6       5.1706   -6.3075    2.6939 C.2     1  LIG  -0.0122  -0.0568 
8     C7       4.2357   -5.4396    2.2179 C.2     1  LIG  -0.1729  -0.2764 
9     C8       3.3119   -5.7174    1.0365 C.3     1  LIG  -0.0495   0.1382 
10    C9       1.8444   -5.5722    1.4294 C.3     1  LIG   0.1077   0.5030 
11    C10      2.4676   -3.9427    3.2122 C.3     1  LIG   0.1116   0.5030 
12    C11      3.9370   -4.0721    2.8256 C.3     1  LIG  -0.0624   0.1382 
13    C12      5.9321   -5.9751    3.9215 C.ar    1  LIG  -0.0981   0.0284 
14    C13      6.9689   -5.0323    3.9049 C.ar    1  LIG  -0.0998  -0.1500 
15    C14      7.6775   -4.7525    5.0730 C.ar    1  LIG  -0.1238  -0.1500 
16    C15      7.3583   -5.4239    6.2526 C.ar    1  LIG   0.0319   0.1770 
17    C16      6.3416   -6.3803    6.2757 C.ar    1  LIG  -0.1189  -0.1500 
18    C17      5.6250   -6.6673    5.1071 C.ar    1  LIG  -0.0588  -0.1435 
19    C18      4.5537   -7.7306    5.0948 C.3     1  LIG  -0.0325   0.1435 
20    C19      4.9735   -8.9670    4.2899 C.3     1  LIG  -0.0361   0.1435 
21    Cl1      8.2358   -5.0779    7.6939 Cl      1  LIG  -0.0581  -0.1770 
22    H1       6.0561  -10.9322    0.2229 H       1  LIG   0.1609   0.1500 
23    H2       5.4658  -10.9851    2.6245 H       1  LIG   0.1524   0.1500 
24    H3       6.2199   -8.7102   -0.9096 H       1  LIG   0.0365   0.1500 
25    H4       3.5547   -5.0120    0.2314 H       1  LIG   0.0833   0.0000 
26    H5       3.4331   -6.7186    0.6179 H       1  LIG   0.1120   0.0000 
27    H6       1.1882   -5.6542    0.5578 H       1  LIG   0.1013   0.0000 
28    H7       1.5417   -6.3101    2.1804 H       1  LIG   0.1039   0.0000 
29    H8       2.2297   -2.9273    3.5428 H       1  LIG   0.1015   0.0000 
30    H9       2.1786   -4.6549    3.9927 H       1  LIG   0.1068   0.0000 
31    H10      4.5324   -3.8536    3.7151 H       1  LIG   0.1133   0.0000 
32    H11      4.1967   -3.3020    2.0875 H       1  LIG   0.0755   0.0000 
33    H12      7.2280   -4.5105    2.9868 H       1  LIG   0.1484   0.1500 
34    H13      8.4748   -4.0144    5.0496 H       1  LIG   0.1620   0.1500 
35    H14      6.1121   -6.9095    7.1976 H       1  LIG   0.1594   0.1500 
36    H15      4.3342   -8.0423    6.1240 H       1  LIG   0.0659   0.0000 
37    H16      3.6161   -7.3108    4.7087 H       1  LIG   0.0376   0.0000 
38    H17      4.1683   -9.7063    4.3974 H       1  LIG   0.0619   0.0000 
39    H18      5.8663   -9.3979    4.7640 H       1  LIG   0.0751   0.0000 
40    N2       1.6148   -4.2185    2.0171 N.4     1  LIG  -0.7618  -0.9060 
41    H19      0.6238   -4.1262    2.2790 H       1  LIG   0.4505   0.4500 
42    H20      1.7819   -3.4985    1.3002 H       1  LIG   0.4492   0.4500 
@<TRIPOS>BOND
1     1     6     ar
2     1     2     ar
3     1     22    1
4     2     3     ar
5     2     23    1
6     3     20    1
7     3     4     ar
8     4     5     ar
9     4     7     1
10    5     6     ar
11    6     24    1
12    7     8     2
13    7     13    1
14    8     12    1
15    8     9     1
16    9     10    1
17    9     25    1
18    9     26    1
19    10    27    1
20    10    28    1
21    10    40    1
22    11    12    1
23    11    29    1
24    11    30    1
25    11    40    1
26    12    31    1
27    12    32    1
28    13    18    ar
29    13    14    ar
30    14    15    ar
31    14    33    1
32    15    16    ar
33    15    34    1
34    16    17    ar
35    16    21    1
36    17    18    ar
37    17    35    1
38    18    19    1
39    19    20    1
40    19    36    1
41    19    37    1
42    20    38    1
43    20    39    1
44    40    41    1
45    40    42    1
@<TRIPOS>SUBSTRUCTURE
1   LIG    1    
 
########## Number      : 257
########## Name        : ZINC00001264
########## Description : AM1BCC_CHARGES =   0.0000 ORIGINAL_CHARGES =  -0.0000

@<TRIPOS>MOLECULE
ZINC00001264
22    22    1     0     0    
SMALL
USER_CHARGES
****
****
@<TRIPOS>ATOM
1     C1       5.5543   -5.4830   -1.8965 C.3     1  LIG  -0.0735   0.1435 
2     C2       4.3876   -6.4141   -1.6976 C.ar    1  LIG  -0.0892  -0.1435 
3     C3       3.0589   -5.9929   -1.8928 C.ar    1  LIG  -0.2242  -0.1435 
4     C4       2.0475   -6.9284   -1.6741 C.ar    1  LIG   0.3774   0.1600 
5     N1       2.2461   -8.2100   -1.2979 N.ar    1  LIG  -0.6469  -0.6200 
6     C5       3.5252   -8.6076   -1.1211 C.ar    1  LIG   0.4057   0.1665 
7     C6       4.6088   -7.7482   -1.3100 C.ar    1  LIG  -0.0054   0.0825 
8     O1       5.8641   -8.2545   -1.1041 O.3     1  LIG  -0.4899  -0.5325 
9     C7       3.7289  -10.0347   -0.7063 C.3     1  LIG  -0.1405   0.1435 
10    C8       2.6785   -4.5955   -2.3005 C.3     1  LIG   0.1790   0.4235 
11    O2       2.8779   -3.6674   -1.2419 O.3     1  LIG  -0.5972  -0.6800 
12    H1       6.5330   -7.5752   -1.2834 H       1  LIG   0.4228   0.4500 
13    H2       2.7896   -4.1385   -0.3961 H       1  LIG   0.4049   0.4000 
14    H3       5.2578   -4.4660   -2.1620 H       1  LIG   0.0803   0.0000 
15    H4       6.1383   -5.4110   -0.9728 H       1  LIG   0.0457   0.0000 
16    H5       6.1947   -5.8532   -2.7040 H       1  LIG   0.0464   0.0000 
17    H6       1.0014   -6.6621   -1.7997 H       1  LIG   0.0227   0.1500 
18    H7       2.7692  -10.5527   -0.6080 H       1  LIG   0.0609   0.0000 
19    H8       4.3242  -10.5671   -1.4547 H       1  LIG   0.0563   0.0000 
20    H9       4.2375  -10.0807    0.2617 H       1  LIG   0.0560   0.0000 
21    H10      3.2526   -4.2733   -3.1754 H       1  LIG   0.0740   0.0000 
22    H11      1.6224   -4.5456   -2.5879 H       1  LIG   0.0347   0.0000 
@<TRIPOS>BOND
1     1     2     1
2     1     14    1
3     1     15    1
4     1     16    1
5     2     7     ar
6     2     3     ar
7     3     4     ar
8     3     10    1
9     4     5     ar
10    4     17    1
11    5     6     ar
12    6     7     ar
13    6     9     1
14    7     8     1
15    8     12    1
16    9     18    1
17    9     19    1
18    9     20    1
19    10    11    1
20    10    21    1
21    10    22    1
22    11    13    1
@<TRIPOS>SUBSTRUCTURE
1   LIG    1    
 
########## Number      : 258
########## Name        : ZINC00001267
########## Description : AM1BCC_CHARGES =   1.0001 ORIGINAL_CHARGES =   1.0000

@<TRIPOS>MOLECULE
ZINC00001267
37    38    1     0     0    
SMALL
USER_CHARGES
****
****
@<TRIPOS>ATOM
1     C1       1.5415   -2.3799    2.2938 C.3     1  LIG   0.1266   0.2800 
2     O1       2.4088   -1.3646    1.7791 O.3     1  LIG  -0.5087  -0.4300 
3     C2       3.7035   -1.4309    2.2129 C.2     1  LIG   0.6103   0.6590 
4     O2       4.1494   -2.2633    2.9913 O.2     1  LIG  -0.4519  -0.5700 
5     C3       4.4989   -0.2879    1.5940 C.3     1  LIG  -0.0667   0.2045 
6     C4       5.9759   -0.6866    1.4791 C.ar    1  LIG  -0.1176  -0.1435 
7     C5       7.0197   -0.0752    2.1868 C.ar    1  LIG  -0.1243  -0.1500 
8     C6       8.3435   -0.4957    2.0198 C.ar    1  LIG  -0.1156  -0.1500 
9     C7       8.6484   -1.5306    1.1403 C.ar    1  LIG  -0.0947  -0.1500 
10    C8       7.6296   -2.1469    0.4222 C.ar    1  LIG  -0.1083  -0.1500 
11    C9       6.3082   -1.7277    0.5883 C.ar    1  LIG  -0.1046  -0.1500 
12    C10      4.1932    1.0365    2.3616 C.3     1  LIG   0.1408   0.5030 
13    C11      4.1638    0.8975    3.9002 C.3     1  LIG  -0.1115   0.0000 
14    C12      3.8231    2.2339    4.5604 C.3     1  LIG  -0.0983   0.0000 
15    C13      2.5069    2.7914    4.0239 C.3     1  LIG  -0.1058   0.0000 
16    C14      2.5142    2.8893    2.5068 C.3     1  LIG   0.1112   0.5030 
17    H1       0.5465   -2.2237    1.8686 H       1  LIG   0.0735   0.0000 
18    H2       1.8983   -3.3707    1.9968 H       1  LIG   0.0720   0.0000 
19    H3       1.4732   -2.3024    3.3831 H       1  LIG   0.0564   0.0000 
20    H4       4.2106   -0.1276    0.5395 H       1  LIG   0.0931   0.0000 
21    H5       6.8422    0.7406    2.8791 H       1  LIG   0.1207   0.1500 
22    H6       9.1387   -0.0102    2.5791 H       1  LIG   0.1502   0.1500 
23    H7       9.6775   -1.8536    1.0140 H       1  LIG   0.1554   0.1500 
24    H8       7.8608   -2.9534   -0.2676 H       1  LIG   0.1555   0.1500 
25    H9       5.5296   -2.2247    0.0128 H       1  LIG   0.1385   0.1500 
26    H10      4.9808    1.7680    2.1082 H       1  LIG   0.1178   0.0000 
27    H11      3.4076    0.1660    4.2106 H       1  LIG   0.0775   0.0000 
28    H12      5.1227    0.5390    4.2857 H       1  LIG   0.1151   0.0000 
29    H13      3.7536    2.1034    5.6462 H       1  LIG   0.0961   0.0000 
30    H14      4.6309    2.9520    4.3737 H       1  LIG   0.0657   0.0000 
31    H15      1.6815    2.1438    4.3452 H       1  LIG   0.0742   0.0000 
32    H16      2.3217    3.7809    4.4562 H       1  LIG   0.1035   0.0000 
33    H17      1.5283    3.1593    2.1172 H       1  LIG   0.1044   0.0000 
34    H18      3.2555    3.6092    2.1444 H       1  LIG   0.1026   0.0000 
35    N1       2.8648    1.5588    1.9222 N.4     1  LIG  -0.7708  -0.9060 
36    H19      2.8517    1.6465    0.8965 H       1  LIG   0.4497   0.4500 
37    H20      2.1242    0.8790    2.1496 H       1  LIG   0.4681   0.4500 
@<TRIPOS>BOND
1     1     2     1
2     1     17    1
3     1     18    1
4     1     19    1
5     2     3     1
6     3     4     2
7     3     5     1
8     5     6     1
9     5     12    1
10    5     20    1
11    6     11    ar
12    6     7     ar
13    7     8     ar
14    7     21    1
15    8     9     ar
16    8     22    1
17    9     10    ar
18    9     23    1
19    10    11    ar
20    10    24    1
21    11    25    1
22    12    13    1
23    12    26    1
24    12    35    1
25    13    14    1
26    13    27    1
27    13    28    1
28    14    15    1
29    14    29    1
30    14    30    1
31    15    16    1
32    15    31    1
33    15    32    1
34    16    33    1
35    16    34    1
36    16    35    1
37    35    36    1
38    35    37    1
@<TRIPOS>SUBSTRUCTURE
1   LIG    1    
 
########## Number      : 259
########## Name        : ZINC00001269
########## Description : AM1BCC_CHARGES =  -0.0001 ORIGINAL_CHARGES =  -0.0000

@<TRIPOS>MOLECULE
ZINC00001269
17    18    1     0     0    
SMALL
USER_CHARGES
****
****
@<TRIPOS>ATOM
1     C1       4.7903   -5.8745   -0.8584 C.2     1  LIG  -0.3209  -0.1050 
2     C2       3.6233   -5.9005   -1.6341 C.2     1  LIG  -0.0320  -0.1966 
3     C3       3.0103   -7.0144   -2.1427 C.2     1  LIG   0.1847   0.1412 
4     C4       3.5838   -8.3142   -1.8821 C.2     1  LIG   0.6531   0.7160 
5     O1       3.0990   -9.3604   -2.2995 O.2     1  LIG  -0.6139  -0.5700 
6     N1       4.7499   -8.2499   -1.1034 N.am    1  LIG  -0.4852  -0.5390 
7     C5       5.3487   -7.0843   -0.5995 C.2     1  LIG   0.3282   0.2090 
8     N2       6.4899   -7.1906    0.1470 N.pl3   1  LIG  -0.8883  -0.9000 
9     N3       1.8922   -6.6817   -2.8531 N.2     1  LIG  -0.5857  -0.5653 
10    C6       1.8361   -5.3648   -2.7693 C.2     1  LIG   0.3832   0.0365 
11    N4       2.8743   -4.8406   -2.0331 N.pl3   1  LIG  -0.3353   0.0332 
12    H1       5.2097   -9.1258   -0.8792 H       1  LIG   0.3278   0.3700 
13    H2       6.8848   -8.1047    0.3247 H       1  LIG   0.4285   0.4000 
14    H3       6.9366   -6.3621    0.5192 H       1  LIG   0.4387   0.4000 
15    H4       3.0357   -3.8614   -1.8362 H       1  LIG   0.3051   0.2700 
16    H5       5.2108   -4.9443   -0.4942 H       1  LIG   0.1489   0.1500 
17    H6       1.0789   -4.7336   -3.2131 H       1  LIG   0.0630   0.1500 
@<TRIPOS>BOND
1     1     7     2
2     1     2     1
3     1     16    1
4     2     11    1
5     2     3     2
6     3     4     1
7     3     9     1
8     4     5     2
9     4     6     am
10    6     7     1
11    6     12    1
12    7     8     1
13    8     13    1
14    8     14    1
15    9     10    2
16    10    11    1
17    10    17    1
18    11    15    1
@<TRIPOS>SUBSTRUCTURE
1   LIG    1    
 
########## Number      : 260
########## Name        : ZINC00001270
########## Description : AM1BCC_CHARGES =   0.0001 ORIGINAL_CHARGES =  -0.0000

@<TRIPOS>MOLECULE
ZINC00001270
25    25    1     0     0    
SMALL
USER_CHARGES
****
****
@<TRIPOS>ATOM
1     C1       4.9020   -9.1408   -1.6565 C.3     1  LIG  -0.1791   0.0610 
2     C2       4.3436   -8.3114   -0.5274 C.2     1  LIG   0.6666   0.5690 
3     O1       4.2972   -8.7552    0.6150 O.2     1  LIG  -0.5851  -0.5700 
4     N1       3.9286   -7.0651   -0.9765 N.am    1  LIG  -0.4746  -0.5470 
5     C3       3.3551   -6.0220   -0.2123 C.ar    1  LIG   0.0729   0.1170 
6     C4       3.1151   -6.0975    1.1653 C.ar    1  LIG  -0.1479  -0.1500 
7     C5       2.5428   -5.0181    1.8440 C.ar    1  LIG  -0.0983  -0.1500 
8     C6       2.2015   -3.8685    1.1368 C.ar    1  LIG   0.0742   0.0825 
9     C7       2.4453   -3.7629   -0.2287 C.ar    1  LIG  -0.0980  -0.1500 
10    C8       3.0166   -4.8443   -0.9002 C.ar    1  LIG  -0.1783  -0.1500 
11    O2       1.6628   -2.7792    1.8234 O.3     1  LIG  -0.3730  -0.2325 
12    C9       0.2730   -2.7951    1.8525 C.2     1  LIG   0.6324   0.6590 
13    O3      -0.4666   -3.6342    1.3559 O.2     1  LIG  -0.5161  -0.5700 
14    C10     -0.2052   -1.5911    2.6084 C.3     1  LIG  -0.1505   0.0610 
15    H1       4.0446   -6.8684   -1.9675 H       1  LIG   0.3145   0.3700 
16    H2       5.2209  -10.1156   -1.2771 H       1  LIG   0.0829   0.0000 
17    H3       4.1347   -9.2923   -2.4210 H       1  LIG   0.0634   0.0000 
18    H4       5.7644   -8.6338   -2.0987 H       1  LIG   0.0617   0.0000 
19    H5       3.3616   -6.9782    1.7472 H       1  LIG   0.1778   0.1500 
20    H6       2.3661   -5.0829    2.9136 H       1  LIG   0.1478   0.1500 
21    H7       2.1943   -2.8559   -0.7701 H       1  LIG   0.1443   0.1500 
22    H8       3.1974   -4.7563   -1.9692 H       1  LIG   0.1312   0.1500 
23    H9      -1.2986   -1.5930    2.6379 H       1  LIG   0.0771   0.0000 
24    H10      0.1707   -1.6239    3.6341 H       1  LIG   0.0776   0.0000 
25    H11      0.1277   -0.6805    2.1041 H       1  LIG   0.0766   0.0000 
@<TRIPOS>BOND
1     1     2     1
2     1     16    1
3     1     17    1
4     1     18    1
5     2     3     2
6     2     4     am
7     4     5     1
8     4     15    1
9     5     10    ar
10    5     6     ar
11    6     7     ar
12    6     19    1
13    7     8     ar
14    7     20    1
15    8     9     ar
16    8     11    1
17    9     10    ar
18    9     21    1
19    10    22    1
20    11    12    1
21    12    13    2
22    12    14    1
23    14    23    1
24    14    24    1
25    14    25    1
@<TRIPOS>SUBSTRUCTURE
1   LIG    1    
 
########## Number      : 261
########## Name        : ZINC00001272
########## Description : AM1BCC_CHARGES =   0.0004 ORIGINAL_CHARGES =   0.0000

@<TRIPOS>MOLECULE
ZINC00001272
27    27    1     0     0    
SMALL
USER_CHARGES
****
****
@<TRIPOS>ATOM
1     C1       5.2019   -9.6167   -0.9326 C.3     1  LIG   0.0768   0.3001 
2     N1       5.0537   -8.1936   -1.1297 N.am    1  LIG  -0.5675  -0.7301 
3     C2       4.3416   -7.4008   -0.2457 C.2     1  LIG   0.6663   0.5438 
4     O1       3.7640   -7.8143    0.7556 O.2     1  LIG  -0.5878  -0.5700 
5     C3       4.2730   -5.9551   -0.5813 C.ar    1  LIG  -0.1679   0.0862 
6     C4       5.3185   -5.3032   -1.2407 C.ar    1  LIG  -0.0384  -0.1500 
7     C5       5.2199   -3.9396   -1.5254 C.ar    1  LIG  -0.1631  -0.1500 
8     C6       4.0845   -3.2132   -1.1508 C.ar    1  LIG   0.1333   0.1770 
9     C7       3.0435   -3.8637   -0.4774 C.ar    1  LIG  -0.3638  -0.0090 
10    C8       3.1380   -5.2320   -0.1917 C.ar    1  LIG   0.0291  -0.1500 
11    S1       1.5688   -3.0071    0.0159 S.o2    1  LIG   1.5174   1.4470 
12    O2       1.0626   -2.3014   -1.1439 O.2     1  LIG  -0.6441  -0.6500 
13    O3       0.7218   -3.9472    0.7253 O.2     1  LIG  -0.6548  -0.6500 
14    N2       2.1820   -1.8954    1.1555 N.pl3   1  LIG  -0.9250  -0.9137 
15    C9       1.2115   -1.0814    1.9018 C.3     1  LIG   0.2094   0.3557 
16    Cl1      4.0696   -1.5307   -1.5419 Cl      1  LIG  -0.0572  -0.1770 
17    H1       5.4324   -7.7993   -1.9839 H       1  LIG   0.3084   0.3700 
18    H2       3.0197   -2.1669    1.6828 H       1  LIG   0.4503   0.4200 
19    H3       6.0991   -9.9492   -1.4596 H       1  LIG   0.0378   0.0000 
20    H4       5.2857   -9.8470    0.1327 H       1  LIG   0.0760   0.0000 
21    H5       4.3226  -10.1163   -1.3470 H       1  LIG   0.0277   0.0000 
22    H6       6.2268   -5.8268   -1.5250 H       1  LIG   0.1471   0.1500 
23    H7       6.0458   -3.4511   -2.0383 H       1  LIG   0.1588   0.1500 
24    H8       2.3310   -5.7471    0.3237 H       1  LIG   0.1970   0.1500 
25    H9       1.7264   -0.2136    2.3233 H       1  LIG   0.0462   0.0000 
26    H10      0.4143   -0.7215    1.2464 H       1  LIG   0.0525   0.0000 
27    H11      0.7862   -1.6657    2.7217 H       1  LIG   0.0359   0.0000 
@<TRIPOS>BOND
1     1     2     1
2     1     19    1
3     1     20    1
4     1     21    1
5     2     3     am
6     2     17    1
7     3     4     2
8     3     5     1
9     5     10    ar
10    5     6     ar
11    6     7     ar
12    6     22    1
13    7     8     ar
14    7     23    1
15    8     9     ar
16    8     16    1
17    9     10    ar
18    9     11    1
19    10    24    1
20    11    12    2
21    11    13    2
22    11    14    1
23    14    15    1
24    14    18    1
25    15    25    1
26    15    26    1
27    15    27    1
@<TRIPOS>SUBSTRUCTURE
1   LIG    1    
 
########## Number      : 262
########## Name        : ZINC00001273
########## Description : AM1BCC_CHARGES =  -0.0001 ORIGINAL_CHARGES =  -0.0000

@<TRIPOS>MOLECULE
ZINC00001273
21    22    1     0     0    
SMALL
USER_CHARGES
****
****
@<TRIPOS>ATOM
1     C1       0.6713   -5.6137   -3.1097 C.3     1  LIG  -0.1467   0.0610 
2     C2       1.2846   -5.4057   -1.7558 C.2     1  LIG   0.6903   0.6253 
3     N1       2.0889   -6.2909   -1.2673 N.2     1  LIG  -0.6493  -0.6290 
4     C3       2.7651   -6.0842   -0.0523 C.ar    1  LIG   0.2646   0.1790 
5     C4       3.7428   -7.0260    0.2986 C.ar    1  LIG  -0.1231  -0.1500 
6     C5       4.4887   -6.8977    1.4743 C.ar    1  LIG  -0.0577  -0.1500 
7     C6       4.2627   -5.8151    2.3206 C.ar    1  LIG  -0.0158   0.1770 
8     C7       3.2968   -4.8653    2.0028 C.ar    1  LIG  -0.0061  -0.1500 
9     C8       2.5606   -5.0146    0.8233 C.ar    1  LIG  -0.4232  -0.0090 
10    S1       1.3300   -3.8175    0.4729 S.o2    1  LIG   1.5227   1.4470 
11    O1       1.9751   -2.5202    0.4878 O.2     1  LIG  -0.6449  -0.6500 
12    O2       0.1974   -4.1172    1.3246 O.2     1  LIG  -0.6393  -0.6500 
13    N2       0.9297   -4.1899   -1.1235 N.pl3   1  LIG  -0.8524  -0.7943 
14    Cl1      5.1796   -5.6539    3.7684 Cl      1  LIG  -0.0755  -0.1770 
15    H1       0.4593   -3.4612   -1.6713 H       1  LIG   0.4606   0.4200 
16    H2       0.9231   -6.6031   -3.5006 H       1  LIG   0.0863   0.0000 
17    H3      -0.4161   -5.5200   -3.0386 H       1  LIG   0.0655   0.0000 
18    H4       1.0456   -4.8499   -3.7975 H       1  LIG   0.0660   0.0000 
19    H5       3.9350   -7.8745   -0.3553 H       1  LIG   0.1616   0.1500 
20    H6       5.2397   -7.6462    1.7131 H       1  LIG   0.1546   0.1500 
21    H7       3.1131   -4.0237    2.6658 H       1  LIG   0.1617   0.1500 
@<TRIPOS>BOND
1     1     2     1
2     1     16    1
3     1     17    1
4     1     18    1
5     2     13    1
6     2     3     2
7     3     4     1
8     4     9     ar
9     4     5     ar
10    5     6     ar
11    5     19    1
12    6     7     ar
13    6     20    1
14    7     8     ar
15    7     14    1
16    8     9     ar
17    8     21    1
18    9     10    1
19    10    11    2
20    10    12    2
21    10    13    1
22    13    15    1
@<TRIPOS>SUBSTRUCTURE
1   LIG    1    
 
########## Number      : 263
########## Name        : ZINC00001274
########## Description : AM1BCC_CHARGES =   1.0001 ORIGINAL_CHARGES =   1.0000

@<TRIPOS>MOLECULE
ZINC00001274
37    38    1     0     0    
SMALL
USER_CHARGES
****
****
@<TRIPOS>ATOM
1     C1       5.5014   -8.8133    0.7887 C.ar    1  LIG  -0.0821  -0.1500 
2     C2       4.3159   -8.9537    1.5075 C.ar    1  LIG  -0.1155  -0.1500 
3     C3       3.2725   -8.0454    1.3209 C.ar    1  LIG  -0.0960  -0.1500 
4     C4       3.4076   -6.9854    0.4139 C.ar    1  LIG  -0.1800  -0.1435 
5     C5       4.6031   -6.8564   -0.3075 C.ar    1  LIG  -0.1192  -0.1500 
6     C6       5.6447   -7.7660   -0.1191 C.ar    1  LIG  -0.1145  -0.1500 
7     C7       2.2860   -5.9999    0.2166 C.3     1  LIG   0.1740   0.6465 
8     C8       1.5490   -3.5915    0.1532 C.3     1  LIG   0.0973   0.5030 
9     C9       2.2314   -2.3813   -0.4662 C.3     1  LIG  -0.0194   0.2900 
10    Cl1      1.0097   -1.2451   -1.0844 Cl      1  LIG  -0.0944  -0.2900 
11    C10      2.7909   -4.4899    2.1854 C.3     1  LIG   0.1724   0.6465 
12    C11      3.4031   -3.2036    2.6689 C.ar    1  LIG  -0.1802  -0.1435 
13    C12      4.7605   -2.9372    2.4385 C.ar    1  LIG  -0.1174  -0.1500 
14    C13      5.3291   -1.7390    2.8725 C.ar    1  LIG  -0.1174  -0.1500 
15    C14      4.5482   -0.7975    3.5401 C.ar    1  LIG  -0.0831  -0.1500 
16    C15      3.1988   -1.0535    3.7761 C.ar    1  LIG  -0.1169  -0.1500 
17    C16      2.6276   -2.2513    3.3436 C.ar    1  LIG  -0.0985  -0.1500 
18    H1       6.3123   -9.5213    0.9344 H       1  LIG   0.1612   0.1500 
19    H2       4.2036   -9.7715    2.2139 H       1  LIG   0.1608   0.1500 
20    H3       2.3557   -8.1711    1.8919 H       1  LIG   0.1431   0.1500 
21    H4       4.7313   -6.0489   -1.0242 H       1  LIG   0.1295   0.1500 
22    H5       6.5677   -7.6588   -0.6820 H       1  LIG   0.1582   0.1500 
23    H6       2.0627   -5.9507   -0.8563 H       1  LIG   0.1040   0.0000 
24    H7       1.3725   -6.3078    0.7389 H       1  LIG   0.1036   0.0000 
25    H8       0.9458   -4.1070   -0.6026 H       1  LIG   0.1090   0.0000 
26    H9       0.8874   -3.3241    0.9841 H       1  LIG   0.1134   0.0000 
27    H10      2.8446   -1.8362    0.2538 H       1  LIG   0.0988   0.0000 
28    H11      2.8656   -2.6746   -1.3084 H       1  LIG   0.0855   0.0000 
29    H12      1.8137   -4.6762    2.6469 H       1  LIG   0.0998   0.0000 
30    H13      3.4523   -5.3111    2.4813 H       1  LIG   0.1153   0.0000 
31    H14      5.3842   -3.6617    1.9202 H       1  LIG   0.1344   0.1500 
32    H15      6.3815   -1.5400    2.6904 H       1  LIG   0.1582   0.1500 
33    H16      4.9915    0.1350    3.8777 H       1  LIG   0.1610   0.1500 
34    H17      2.5907   -0.3195    4.2974 H       1  LIG   0.1605   0.1500 
35    H18      1.5728   -2.4324    3.5351 H       1  LIG   0.1412   0.1500 
36    N1       2.5950   -4.5762    0.6735 N.4     1  LIG  -0.6915  -0.9590 
37    H19      3.4960   -4.3342    0.2412 H       1  LIG   0.4450   0.4500 
@<TRIPOS>BOND
1     1     6     ar
2     1     2     ar
3     1     18    1
4     2     3     ar
5     2     19    1
6     3     4     ar
7     3     20    1
8     4     5     ar
9     4     7     1
10    5     6     ar
11    5     21    1
12    6     22    1
13    7     23    1
14    7     24    1
15    7     36    1
16    8     9     1
17    8     25    1
18    8     26    1
19    8     36    1
20    9     10    1
21    9     27    1
22    9     28    1
23    11    12    1
24    11    29    1
25    11    30    1
26    11    36    1
27    12    17    ar
28    12    13    ar
29    13    14    ar
30    13    31    1
31    14    15    ar
32    14    32    1
33    15    16    ar
34    15    33    1
35    16    17    ar
36    16    34    1
37    17    35    1
38    36    37    1
@<TRIPOS>SUBSTRUCTURE
1   LIG    1    
 
########## Number      : 264
########## Name        : ZINC00001275
########## Description : AM1BCC_CHARGES =   0.9999 ORIGINAL_CHARGES =   1.0000

@<TRIPOS>MOLECULE
ZINC00001275
44    46    1     0     0    
SMALL
USER_CHARGES
****
****
@<TRIPOS>ATOM
1     C1       2.5472   -5.9745   -4.6681 C.3     1  LIG   0.1639   0.3691 
2     N1       2.5158   -4.5831   -4.2106 N.pl3   1  LIG  -0.5264  -0.5691 
3     C2       2.5955   -3.5874   -5.1971 C.ar    1  LIG   0.1427   0.1000 
4     C3       1.9689   -3.7337   -6.4511 C.ar    1  LIG  -0.1601  -0.1500 
5     C4       1.9985   -2.7151   -7.4069 C.ar    1  LIG  -0.0774  -0.1500 
6     C5       2.6616   -1.5264   -7.1323 C.ar    1  LIG  -0.1377  -0.1500 
7     C6       3.3014   -1.3650   -5.9071 C.ar    1  LIG  -0.0612  -0.1500 
8     C7       3.2619   -2.3879   -4.9435 C.ar    1  LIG  -0.1460   0.0862 
9     C8       4.0969   -2.2086   -3.7437 C.2     1  LIG   0.7485   0.5438 
10    O1       5.2293   -1.7611   -3.9511 O.2     1  LIG  -0.6434  -0.5700 
11    N2       3.5862   -2.4480   -2.4557 N.am    1  LIG  -0.3750  -0.4771 
12    C9       2.4193   -3.2375   -2.1296 C.ar    1  LIG   0.0230   0.1170 
13    C10      1.9665   -4.3087   -2.9390 C.ar    1  LIG   0.1066   0.1000 
14    C11      0.8999   -5.1120   -2.4603 C.ar    1  LIG  -0.1451  -0.1500 
15    C12      0.2790   -4.8733   -1.2379 C.ar    1  LIG  -0.1071  -0.1500 
16    C13      0.7058   -3.8162   -0.4585 C.ar    1  LIG  -0.1227  -0.1500 
17    C14      1.7608   -3.0152   -0.8974 C.ar    1  LIG  -0.1460  -0.1500 
18    C15      4.4280   -1.9526   -1.3436 C.3     1  LIG   0.0882   0.3001 
19    C16      5.3073   -3.0679   -0.7738 C.3     1  LIG   0.0626   0.5030 
20    C17      6.6590   -3.7299    1.2146 C.3     1  LIG   0.0839   0.5030 
21    C18      7.2224   -1.6266    0.0272 C.3     1  LIG   0.0827   0.5030 
22    H1       3.2957   -6.1088   -5.4587 H       1  LIG   0.0685   0.0000 
23    H2       2.8415   -6.6480   -3.8540 H       1  LIG   0.0566   0.0000 
24    H3       1.5754   -6.3005   -5.0560 H       1  LIG   0.0286   0.0000 
25    H4       1.4186   -4.6396   -6.6944 H       1  LIG   0.1484   0.1500 
26    H5       1.4984   -2.8521   -8.3614 H       1  LIG   0.1506   0.1500 
27    H6       2.6916   -0.7330   -7.8731 H       1  LIG   0.1541   0.1500 
28    H7       3.8415   -0.4407   -5.7142 H       1  LIG   0.1550   0.1500 
29    H8       0.5118   -5.9335   -3.0587 H       1  LIG   0.1518   0.1500 
30    H9      -0.5420   -5.5031   -0.9091 H       1  LIG   0.1522   0.1500 
31    H10      0.2224   -3.6072    0.4915 H       1  LIG   0.1500   0.1500 
32    H11      2.0289   -2.1914   -0.2439 H       1  LIG   0.1366   0.1500 
33    H12      5.0642   -1.1462   -1.7245 H       1  LIG   0.0863   0.0000 
34    H13      3.8262   -1.4729   -0.5690 H       1  LIG   0.0642   0.0000 
35    H14      4.6842   -3.8921   -0.4098 H       1  LIG   0.1072   0.0000 
36    H15      6.0074   -3.4638   -1.5182 H       1  LIG   0.1272   0.0000 
37    H16      7.1841   -3.3227    2.0826 H       1  LIG   0.1025   0.0000 
38    H17      5.8138   -4.3381    1.5475 H       1  LIG   0.1039   0.0000 
39    H18      7.3358   -4.3090    0.5807 H       1  LIG   0.1084   0.0000 
40    H19      7.7639   -1.3516    0.9365 H       1  LIG   0.0987   0.0000 
41    H20      7.8842   -2.1286   -0.6835 H       1  LIG   0.1108   0.0000 
42    H21      6.7770   -0.7313   -0.4103 H       1  LIG   0.1144   0.0000 
43    N3       6.1178   -2.5761    0.4098 N.4     1  LIG  -0.6746  -0.9590 
44    H22      5.4790   -2.0647    1.0337 H       1  LIG   0.4445   0.4500 
@<TRIPOS>BOND
1     1     2     1
2     1     22    1
3     1     23    1
4     1     24    1
5     2     13    1
6     2     3     1
7     3     8     ar
8     3     4     ar
9     4     5     ar
10    4     25    1
11    5     6     ar
12    5     26    1
13    6     7     ar
14    6     27    1
15    7     8     ar
16    7     28    1
17    8     9     1
18    9     10    2
19    9     11    am
20    11    12    1
21    11    18    1
22    12    17    ar
23    12    13    ar
24    13    14    ar
25    14    15    ar
26    14    29    1
27    15    16    ar
28    15    30    1
29    16    17    ar
30    16    31    1
31    17    32    1
32    18    19    1
33    18    33    1
34    18    34    1
35    19    35    1
36    19    36    1
37    19    43    1
38    20    37    1
39    20    38    1
40    20    39    1
41    20    43    1
42    21    40    1
43    21    41    1
44    21    42    1
45    21    43    1
46    43    44    1
@<TRIPOS>SUBSTRUCTURE
1   LIG    1    
 
########## Number      : 265
########## Name        : ZINC00001276
########## Description : AM1BCC_CHARGES =   0.0002 ORIGINAL_CHARGES =  -0.0000

@<TRIPOS>MOLECULE
ZINC00001276
17    17    1     0     0    
SMALL
USER_CHARGES
****
****
@<TRIPOS>ATOM
1     C1       3.0444   -7.9919    0.8369 C.ar    1  LIG  -0.0068  -0.1500 
2     C2       1.9520   -7.3217    1.3914 C.ar    1  LIG  -0.0788   0.1110 
3     C3       1.2149   -6.4148    0.6352 C.ar    1  LIG  -0.0196  -0.1500 
4     C4       1.5808   -6.1775   -0.6894 C.ar    1  LIG  -0.1323   0.1110 
5     C5       2.6761   -6.8435   -1.2589 C.ar    1  LIG   0.2003   0.0825 
6     C6       3.4166   -7.7632   -0.4986 C.ar    1  LIG  -0.1690   0.0862 
7     C7       4.5981   -8.5254   -1.0046 C.2     1  LIG   0.6791   0.5438 
8     O1       5.3530   -9.0981   -0.2232 O.2     1  LIG  -0.6220  -0.5700 
9     N1       4.7866   -8.5702   -2.3647 N.am    1  LIG  -0.6525  -0.8000 
10    O2       3.0302   -6.5827   -2.5563 O.3     1  LIG  -0.5028  -0.5325 
11    Br1      0.5628   -4.9305   -1.6957 Br      1  LIG  -0.0698  -0.1110 
12    Br2      1.4669   -7.6506    3.1907 Br      1  LIG  -0.0621  -0.1110 
13    H1       5.5702   -9.0796   -2.7572 H       1  LIG   0.3172   0.3700 
14    H2       4.1712   -8.0967   -3.0182 H       1  LIG   0.3214   0.3700 
15    H3       2.4188   -5.9128   -2.9103 H       1  LIG   0.4461   0.4500 
16    H4       3.6012   -8.6989    1.4488 H       1  LIG   0.1862   0.1500 
17    H5       0.3656   -5.8970    1.0739 H       1  LIG   0.1656   0.1500 
@<TRIPOS>BOND
1     1     6     ar
2     1     2     ar
3     1     16    1
4     2     3     ar
5     2     12    1
6     3     4     ar
7     3     17    1
8     4     5     ar
9     4     11    1
10    5     6     ar
11    5     10    1
12    6     7     1
13    7     8     2
14    7     9     am
15    9     13    1
16    9     14    1
17    10    15    1
@<TRIPOS>SUBSTRUCTURE
1   LIG    1    
 
########## Number      : 266
########## Name        : ZINC00001277
########## Description : AM1BCC_CHARGES =  -0.0001 ORIGINAL_CHARGES =  -0.0000

@<TRIPOS>MOLECULE
ZINC00001277
30    30    1     0     0    
SMALL
USER_CHARGES
****
****
@<TRIPOS>ATOM
1     C1       7.1817   -8.5098   -1.9638 C.3     1  LIG  -0.0981   0.0000 
2     C2       5.8159   -8.2733   -1.3528 C.3     1  LIG   0.1342   0.2800 
3     O1       5.7065   -6.9016   -1.0085 O.3     1  LIG  -0.5177  -0.5512 
4     P1       4.2628   -6.2216   -0.6973 P.3     1  LIG   1.2606   1.4909 
5     S1       3.0368   -6.0963   -2.2084 S.2     1  LIG  -0.6117  -0.6773 
6     O2       3.7897   -7.0000    0.6472 O.3     1  LIG  -0.5624  -0.5512 
7     C3       2.9844   -8.1670    0.5747 C.3     1  LIG   0.1716   0.2800 
8     C4       3.1333   -8.9366    1.8704 C.3     1  LIG  -0.1077   0.0000 
9     O3       4.7706   -4.8049   -0.0936 O.3     1  LIG  -0.4344  -0.3537 
10    C5       4.0066   -3.8512    0.5258 C.ar    1  LIG   0.1736   0.0825 
11    C6       2.6742   -4.0543    0.8889 C.ar    1  LIG  -0.1713  -0.1500 
12    C7       1.9550   -3.0385    1.5239 C.ar    1  LIG  -0.0847  -0.1500 
13    C8       2.5696   -1.8184    1.7991 C.ar    1  LIG   0.0078   0.1770 
14    C9       3.9002   -1.6032    1.4467 C.ar    1  LIG  -0.1015  -0.1500 
15    C10      4.6157   -2.6216    0.8119 C.ar    1  LIG   0.0188   0.1770 
16    Cl1      6.2648   -2.3226    0.3880 Cl      1  LIG  -0.0476  -0.1770 
17    Cl2      1.6789   -0.5701    2.5819 Cl      1  LIG  -0.0739  -0.1770 
18    H1       7.3111   -9.5611   -2.2355 H       1  LIG   0.0513   0.0000 
19    H2       7.3147   -7.8941   -2.8596 H       1  LIG   0.0567   0.0000 
20    H3       7.9730   -8.2260   -1.2621 H       1  LIG   0.0617   0.0000 
21    H4       5.0345   -8.5497   -2.0662 H       1  LIG   0.0827   0.0000 
22    H5       5.7038   -8.8760   -0.4471 H       1  LIG   0.0399   0.0000 
23    H6       1.9420   -7.8647    0.4354 H       1  LIG   0.0675   0.0000 
24    H7       3.2844   -8.7918   -0.2704 H       1  LIG   0.0390   0.0000 
25    H8       2.5161   -9.8392    1.8617 H       1  LIG   0.0543   0.0000 
26    H9       4.1779   -9.2240    2.0293 H       1  LIG   0.0488   0.0000 
27    H10      2.8403   -8.3161    2.7239 H       1  LIG   0.0612   0.0000 
28    H11      2.1654   -4.9928    0.6972 H       1  LIG   0.1532   0.1500 
29    H12      0.9180   -3.2135    1.7991 H       1  LIG   0.1604   0.1500 
30    H13      4.3769   -0.6505    1.6644 H       1  LIG   0.1676   0.1500 
@<TRIPOS>BOND
1     1     2     1
2     1     18    1
3     1     19    1
4     1     20    1
5     2     3     1
6     2     21    1
7     2     22    1
8     3     4     1
9     4     5     2
10    4     6     1
11    4     9     1
12    6     7     1
13    7     8     1
14    7     23    1
15    7     24    1
16    8     25    1
17    8     26    1
18    8     27    1
19    9     10    1
20    10    15    ar
21    10    11    ar
22    11    12    ar
23    11    28    1
24    12    13    ar
25    12    29    1
26    13    14    ar
27    13    17    1
28    14    15    ar
29    14    30    1
30    15    16    1
@<TRIPOS>SUBSTRUCTURE
1   LIG    1    
 
########## Number      : 267
########## Name        : ZINC00001278
########## Description : AM1BCC_CHARGES =   0.0003 ORIGINAL_CHARGES =  -0.0000

@<TRIPOS>MOLECULE
ZINC00001278
26    27    1     0     0    
SMALL
USER_CHARGES
****
****
@<TRIPOS>ATOM
1     C1       3.4945   -8.4429    0.5841 C.ar    1  LIG  -0.1057  -0.1500 
2     C2       2.1113   -8.4120    0.7502 C.ar    1  LIG  -0.1209  -0.1500 
3     C3       1.4543   -7.1919    0.9101 C.ar    1  LIG  -0.0757  -0.1500 
4     C4       2.1856   -5.9980    0.9040 C.ar    1  LIG  -0.1401   0.0862 
5     C5       3.5687   -6.0267    0.7381 C.ar    1  LIG  -0.1226   0.0862 
6     C6       4.2247   -7.2537    0.5775 C.ar    1  LIG  -0.0867  -0.1500 
7     C7       4.3515   -4.7764    0.7281 C.2     1  LIG   0.5790   0.4694 
8     O1       5.5660   -4.8113    0.5639 O.2     1  LIG  -0.5058  -0.5700 
9     C8       3.6278   -3.4851    0.9213 C.2     1  LIG  -0.1874  -0.1238 
10    C9       2.2938   -3.4718    1.0710 C.2     1  LIG   0.0520   0.0911 
11    C10      1.4844   -4.7161    1.0727 C.2     1  LIG   0.5582   0.4694 
12    O2       0.2676   -4.6654    1.2131 O.2     1  LIG  -0.5218  -0.5700 
13    O3       1.6045   -2.2852    1.2441 O.3     1  LIG  -0.4832  -0.5267 
14    C11      4.4705   -2.2290    0.9036 C.3     1  LIG  -0.0002   0.2764 
15    C12      5.1361   -1.9824    2.2318 C.2     1  LIG  -0.1429  -0.2882 
16    C13      6.4511   -1.8977    2.4829 C.2     1  LIG   0.0727   0.2800 
17    Cl1      7.6642   -2.0671    1.2679 Cl      1  LIG  -0.0646  -0.1400 
18    Cl2      6.9997   -1.5989    4.0984 Cl      1  LIG  -0.0846  -0.1400 
19    H1       0.6614   -2.5147    1.3342 H       1  LIG   0.4472   0.4500 
20    H2       4.0052   -9.3937    0.4595 H       1  LIG   0.1453   0.1500 
21    H3       1.5442   -9.3387    0.7550 H       1  LIG   0.1451   0.1500 
22    H4       0.3747   -7.1891    1.0382 H       1  LIG   0.1597   0.1500 
23    H5       5.3028   -7.3019    0.4464 H       1  LIG   0.1653   0.1500 
24    H6       5.1873   -2.2844    0.0772 H       1  LIG   0.0853   0.0000 
25    H7       3.8519   -1.3519    0.6754 H       1  LIG   0.0818   0.0000 
26    H8       4.4455   -1.8475    3.0644 H       1  LIG   0.1509   0.1500 
@<TRIPOS>BOND
1     1     6     ar
2     1     2     ar
3     1     20    1
4     2     3     ar
5     2     21    1
6     3     4     ar
7     3     22    1
8     4     11    1
9     4     5     ar
10    5     6     ar
11    5     7     1
12    6     23    1
13    7     8     2
14    7     9     1
15    9     10    2
16    9     14    1
17    10    11    1
18    10    13    1
19    11    12    2
20    13    19    1
21    14    15    1
22    14    24    1
23    14    25    1
24    15    16    2
25    15    26    1
26    16    17    1
27    16    18    1
@<TRIPOS>SUBSTRUCTURE
1   LIG    1    
 
########## Number      : 268
########## Name        : ZINC00001279
########## Description : AM1BCC_CHARGES =   0.0001 ORIGINAL_CHARGES =   0.0000

@<TRIPOS>MOLECULE
ZINC00001279
20    20    1     0     0    
SMALL
USER_CHARGES
****
****
@<TRIPOS>ATOM
1     C1       5.1307   -8.3156   -0.2847 C.3     1  LIG  -0.0720   0.1435 
2     C2       3.9152   -7.4492   -0.4268 C.ar    1  LIG   0.0059  -0.1435 
3     C3       3.9581   -6.1012   -0.0465 C.ar    1  LIG  -0.1636  -0.1500 
4     C4       2.8386   -5.2843   -0.2066 C.ar    1  LIG   0.0077  -0.1500 
5     C5       1.6731   -5.8204   -0.7547 C.ar    1  LIG  -0.4119  -0.0090 
6     C6       1.6175   -7.1526   -1.1600 C.ar    1  LIG  -0.0005  -0.1500 
7     C7       2.7420   -7.9630   -0.9962 C.ar    1  LIG  -0.1638  -0.1500 
8     S1       0.2672   -4.7643   -0.9658 S.o2    1  LIG   1.5378   1.4470 
9     O1       0.7747   -3.5246   -1.5245 O.2     1  LIG  -0.6191  -0.6500 
10    O2      -0.7588   -5.5160   -1.6641 O.2     1  LIG  -0.6277  -0.6500 
11    N1      -0.2257   -4.5053    0.6618 N.pl3   1  LIG  -0.5513  -0.1820 
12    Cl1     -0.7032   -5.9303    1.5287 Cl      1  LIG   0.1373   0.0220 
13    Cl2     -1.3684   -3.2135    0.8479 Cl      1  LIG   0.1476   0.0220 
14    H1       5.7356   -8.0027    0.5728 H       1  LIG   0.0539   0.0000 
15    H2       4.8484   -9.3605   -0.1180 H       1  LIG   0.0535   0.0000 
16    H3       5.7420   -8.2543   -1.1903 H       1  LIG   0.0614   0.0000 
17    H4       4.8665   -5.6797    0.3771 H       1  LIG   0.1451   0.1500 
18    H5       2.8910   -4.2429    0.0983 H       1  LIG   0.1533   0.1500 
19    H6       0.7208   -7.5780   -1.6003 H       1  LIG   0.1615   0.1500 
20    H7       2.6981   -9.0013   -1.3166 H       1  LIG   0.1450   0.1500 
@<TRIPOS>BOND
1     1     2     1
2     1     14    1
3     1     15    1
4     1     16    1
5     2     7     ar
6     2     3     ar
7     3     4     ar
8     3     17    1
9     4     5     ar
10    4     18    1
11    5     6     ar
12    5     8     1
13    6     7     ar
14    6     19    1
15    7     20    1
16    8     9     2
17    8     10    2
18    8     11    1
19    11    12    1
20    11    13    1
@<TRIPOS>SUBSTRUCTURE
1   LIG    1    
 
########## Number      : 269
########## Name        : ZINC00001280
########## Description : AM1BCC_CHARGES =  -0.0000 ORIGINAL_CHARGES =   0.0000

@<TRIPOS>MOLECULE
ZINC00001280
19    19    1     0     0    
SMALL
USER_CHARGES
****
****
@<TRIPOS>ATOM
1     C1       5.8651   -7.0130    0.5750 C.3     1  LIG  -0.0596   0.1435 
2     C2       4.7915   -6.8611   -0.4689 C.ar    1  LIG  -0.0208  -0.1435 
3     C3       4.2653   -5.5874   -0.7119 C.ar    1  LIG  -0.2123  -0.1500 
4     C4       3.2568   -5.4103   -1.6564 C.ar    1  LIG   0.1420   0.0825 
5     C5       2.7605   -6.4962   -2.3870 C.ar    1  LIG  -0.0161   0.1770 
6     C6       3.2876   -7.7894   -2.1885 C.ar    1  LIG  -0.0189  -0.1435 
7     C7       4.2913   -7.9575   -1.2027 C.ar    1  LIG  -0.0212   0.1770 
8     Cl1      4.9181   -9.5457   -0.8619 Cl      1  LIG  -0.0912  -0.1770 
9     C8       2.7579   -8.9788   -2.9534 C.3     1  LIG  -0.0669   0.1435 
10    Cl2      1.4764   -6.2091   -3.5202 Cl      1  LIG  -0.0643  -0.1770 
11    O1       2.7444   -4.1568   -1.8660 O.3     1  LIG  -0.4809  -0.5325 
12    H1       3.1970   -3.5265   -1.2803 H       1  LIG   0.4235   0.4500 
13    H2       6.1397   -6.0477    1.0142 H       1  LIG   0.0446   0.0000 
14    H3       5.5167   -7.6555    1.3900 H       1  LIG   0.0595   0.0000 
15    H4       6.7722   -7.4368    0.1321 H       1  LIG   0.0594   0.0000 
16    H5       4.6389   -4.7325   -0.1528 H       1  LIG   0.1419   0.1500 
17    H6       2.3010   -8.6992   -3.9063 H       1  LIG   0.0610   0.0000 
18    H7       3.5621   -9.6715   -3.2210 H       1  LIG   0.0597   0.0000 
19    H8       2.0119   -9.5065   -2.3509 H       1  LIG   0.0606   0.0000 
@<TRIPOS>BOND
1     1     2     1
2     1     13    1
3     1     14    1
4     1     15    1
5     2     7     ar
6     2     3     ar
7     3     4     ar
8     3     16    1
9     4     5     ar
10    4     11    1
11    5     6     ar
12    5     10    1
13    6     7     ar
14    6     9     1
15    7     8     1
16    9     17    1
17    9     18    1
18    9     19    1
19    11    12    1
@<TRIPOS>SUBSTRUCTURE
1   LIG    1    
 
########## Number      : 270
########## Name        : ZINC00001287
########## Description : AM1BCC_CHARGES =   0.0000 ORIGINAL_CHARGES =   0.0000

@<TRIPOS>MOLECULE
ZINC00001287
30    30    1     0     0    
SMALL
USER_CHARGES
****
****
@<TRIPOS>ATOM
1     C1       6.6002   -7.0175   -0.0090 C.3     1  LIG  -0.1285   0.0000 
2     C2       5.3546   -7.8684    0.1491 C.3     1  LIG   0.1399   0.2800 
3     O1       4.2606   -7.2763   -0.5706 O.3     1  LIG  -0.4357  -0.4300 
4     C3       3.5376   -6.3368    0.0885 C.2     1  LIG   0.6468   0.6338 
5     O2       3.6963   -5.9281    1.2258 O.2     1  LIG  -0.5206  -0.5700 
6     C4       2.4968   -5.8296   -0.8238 C.ar    1  LIG  -0.0713   0.0862 
7     C5       1.6414   -6.7502   -1.4431 C.ar    1  LIG  -0.0919  -0.1500 
8     C6       0.6082   -6.2986   -2.2647 C.ar    1  LIG  -0.1157  -0.1500 
9     C7       0.4216   -4.9319   -2.4678 C.ar    1  LIG  -0.1173  -0.1500 
10    C8       1.2686   -4.0094   -1.8521 C.ar    1  LIG  -0.0906  -0.1500 
11    C9       2.3070   -4.4550   -1.0234 C.ar    1  LIG  -0.0731   0.0862 
12    C10      3.2255   -3.4595   -0.4383 C.2     1  LIG   0.6463   0.6338 
13    O3       4.4405   -3.5502   -0.4817 O.2     1  LIG  -0.5232  -0.5700 
14    O4       2.4870   -2.4842    0.1480 O.3     1  LIG  -0.4359  -0.4300 
15    C11      3.2433   -1.4459    0.7873 C.3     1  LIG   0.1383   0.2800 
16    C12      2.2699   -0.4482    1.3824 C.3     1  LIG  -0.1006   0.0000 
17    H1       7.4548   -7.4839    0.4891 H       1  LIG   0.0443   0.0000 
18    H2       6.8400   -6.8800   -1.0685 H       1  LIG   0.0476   0.0000 
19    H3       6.4497   -6.0196    0.4151 H       1  LIG   0.0669   0.0000 
20    H4       5.5240   -8.8606   -0.2813 H       1  LIG   0.0631   0.0000 
21    H5       5.0982   -8.0090    1.2053 H       1  LIG   0.0599   0.0000 
22    H6       1.7610   -7.8191   -1.2836 H       1  LIG   0.1553   0.1500 
23    H7      -0.0551   -7.0134   -2.7441 H       1  LIG   0.1429   0.1500 
24    H8      -0.3825   -4.5843   -3.1106 H       1  LIG   0.1429   0.1500 
25    H9       1.1168   -2.9489   -2.0376 H       1  LIG   0.1556   0.1500 
26    H10      3.8645   -1.8798    1.5786 H       1  LIG   0.0605   0.0000 
27    H11      3.8818   -0.9498    0.0481 H       1  LIG   0.0494   0.0000 
28    H12      2.8022    0.3657    1.8825 H       1  LIG   0.0478   0.0000 
29    H13      1.6275   -0.0248    0.6032 H       1  LIG   0.0457   0.0000 
30    H14      1.6108   -0.9378    2.1068 H       1  LIG   0.0512   0.0000 
@<TRIPOS>BOND
1     1     2     1
2     1     17    1
3     1     18    1
4     1     19    1
5     2     3     1
6     2     20    1
7     2     21    1
8     3     4     1
9     4     5     2
10    4     6     1
11    6     11    ar
12    6     7     ar
13    7     8     ar
14    7     22    1
15    8     9     ar
16    8     23    1
17    9     10    ar
18    9     24    1
19    10    11    ar
20    10    25    1
21    11    12    1
22    12    13    2
23    12    14    1
24    14    15    1
25    15    16    1
26    15    26    1
27    15    27    1
28    16    28    1
29    16    29    1
30    16    30    1
@<TRIPOS>SUBSTRUCTURE
1   LIG    1    
 
########## Number      : 271
########## Name        : ZINC00001288
########## Description : AM1BCC_CHARGES =   0.9998 ORIGINAL_CHARGES =   1.0000

@<TRIPOS>MOLECULE
ZINC00001288
36    36    1     0     0    
SMALL
USER_CHARGES
****
****
@<TRIPOS>ATOM
1     C1       3.1664   -9.2263   -0.7271 C.3     1  LIG  -0.1024   0.0000 
2     C2       3.8693   -7.8914   -0.9155 C.3     1  LIG   0.0634   0.3001 
3     N1       3.3196   -6.8159   -0.0795 N.am    1  LIG  -0.4268  -0.6602 
4     C3       3.2841   -7.0167    1.3817 C.3     1  LIG   0.0708   0.3001 
5     C4       4.6617   -7.2751    1.9782 C.3     1  LIG  -0.1309   0.0000 
6     C5       3.1883   -5.5410   -0.6557 C.2     1  LIG   0.7468   0.6900 
7     O1       3.8655   -5.1934   -1.6295 O.2     1  LIG  -0.5823  -0.5700 
8     N2       2.2437   -4.6823   -0.0763 N.am    1  LIG  -0.4739  -0.6602 
9     C6       0.9380   -5.1443    0.4124 C.3     1  LIG   0.0646   0.3001 
10    C7       0.4651   -4.3271    1.6074 C.3     1  LIG   0.0967   0.5030 
11    C8       1.8512   -2.4073    0.7986 C.3     1  LIG   0.1013   0.5030 
12    C9       2.3097   -3.2542   -0.3824 C.3     1  LIG   0.0561   0.3001 
13    C10     -0.0671   -1.9997    2.3470 C.3     1  LIG   0.0838   0.5030 
14    H1       3.5528   -9.9603   -1.4411 H       1  LIG   0.0618   0.0000 
15    H2       3.3239   -9.6275    0.2785 H       1  LIG   0.0412   0.0000 
16    H3       2.0879   -9.1257   -0.8867 H       1  LIG   0.0485   0.0000 
17    H4       3.7812   -7.6040   -1.9698 H       1  LIG   0.0775   0.0000 
18    H5       4.9398   -7.9815   -0.7026 H       1  LIG   0.0491   0.0000 
19    H6       2.8931   -6.1237    1.8752 H       1  LIG   0.0369   0.0000 
20    H7       2.6044   -7.8451    1.6035 H       1  LIG   0.0694   0.0000 
21    H8       4.5959   -7.3296    3.0695 H       1  LIG   0.0553   0.0000 
22    H9       5.0841   -8.2201    1.6238 H       1  LIG   0.0575   0.0000 
23    H10      5.3586   -6.4726    1.7152 H       1  LIG   0.0476   0.0000 
24    H11      0.2350   -5.0283   -0.4228 H       1  LIG   0.0536   0.0000 
25    H12      0.9436   -6.2109    0.6472 H       1  LIG   0.1197   0.0000 
26    H13     -0.5616   -4.5917    1.8794 H       1  LIG   0.1056   0.0000 
27    H14      1.1235   -4.4509    2.4742 H       1  LIG   0.1125   0.0000 
28    H15      1.7804   -1.3517    0.5179 H       1  LIG   0.1076   0.0000 
29    H16      2.5206   -2.5186    1.6591 H       1  LIG   0.1134   0.0000 
30    H17      3.3346   -2.9787   -0.6543 H       1  LIG   0.1330   0.0000 
31    H18      1.6778   -3.0750   -1.2607 H       1  LIG   0.0605   0.0000 
32    H19     -0.0896   -0.9655    1.9940 H       1  LIG   0.1060   0.0000 
33    H20     -1.0815   -2.3387    2.5724 H       1  LIG   0.1047   0.0000 
34    H21      0.5839   -2.1026    3.2193 H       1  LIG   0.1069   0.0000 
35    N3       0.4744   -2.8578    1.2387 N.4     1  LIG  -0.6835  -0.9590 
36    H22     -0.1596   -2.7369    0.4368 H       1  LIG   0.4478   0.4500 
@<TRIPOS>BOND
1     1     2     1
2     1     14    1
3     1     15    1
4     1     16    1
5     2     3     1
6     2     17    1
7     2     18    1
8     3     4     1
9     3     6     am
10    4     5     1
11    4     19    1
12    4     20    1
13    5     21    1
14    5     22    1
15    5     23    1
16    6     7     2
17    6     8     am
18    8     12    1
19    8     9     1
20    9     10    1
21    9     24    1
22    9     25    1
23    10    26    1
24    10    27    1
25    10    35    1
26    11    12    1
27    11    28    1
28    11    29    1
29    11    35    1
30    12    30    1
31    12    31    1
32    13    32    1
33    13    33    1
34    13    34    1
35    13    35    1
36    35    36    1
@<TRIPOS>SUBSTRUCTURE
1   LIG    1    
 
########## Number      : 272
########## Name        : ZINC00001289
########## Description : AM1BCC_CHARGES =   0.0002 ORIGINAL_CHARGES =  -0.0000

@<TRIPOS>MOLECULE
ZINC00001289
22    21    1     0     0    
SMALL
USER_CHARGES
****
****
@<TRIPOS>ATOM
1     C1       6.9395   -8.1928   -1.1546 C.3     1  LIG  -0.1073   0.0000 
2     C2       5.8530   -9.1044   -1.7078 C.3     1  LIG   0.0663   0.3001 
3     N1       4.7159   -9.2458   -0.7762 N.pl3   1  LIG  -0.3753  -0.6602 
4     C3       4.8867  -10.3091    0.2360 C.3     1  LIG   0.0692   0.3001 
5     C4       4.4221  -11.6675   -0.2677 C.3     1  LIG  -0.1206   0.0000 
6     C5       3.5823   -8.4022   -0.8531 C.2     1  LIG   0.4205   0.5810 
7     S1       3.4235   -7.0556   -1.8656 S.2     1  LIG  -0.5119  -0.3800 
8     S2       2.2308   -8.7816    0.2385 S.3     1  LIG  -0.1991  -0.3710 
9     C6       1.0955   -9.5570   -0.9368 C.3     1  LIG  -0.0741   0.2300 
10    H1       7.7604   -8.1045   -1.8730 H       1  LIG   0.0491   0.0000 
11    H2       6.5558   -7.1888   -0.9500 H       1  LIG   0.0536   0.0000 
12    H3       7.3495   -8.5864   -0.2192 H       1  LIG   0.0333   0.0000 
13    H4       5.5073   -8.7208   -2.6721 H       1  LIG   0.1022   0.0000 
14    H5       6.2682  -10.0989   -1.9066 H       1  LIG   0.0454   0.0000 
15    H6       5.9478  -10.3628    0.5054 H       1  LIG   0.0604   0.0000 
16    H7       4.3588  -10.0528    1.1581 H       1  LIG   0.0704   0.0000 
17    H8       4.5818  -12.4296    0.5014 H       1  LIG   0.0481   0.0000 
18    H9       3.3591  -11.6609   -0.5217 H       1  LIG   0.0589   0.0000 
19    H10      4.9745  -11.9692   -1.1631 H       1  LIG   0.0439   0.0000 
20    H11      0.2651  -10.0091   -0.3880 H       1  LIG   0.0720   0.0000 
21    H12      0.6876   -8.8138   -1.6267 H       1  LIG   0.1235   0.0000 
22    H13      1.6012  -10.3389   -1.5090 H       1  LIG   0.0717   0.0000 
@<TRIPOS>BOND
1     1     2     1
2     1     10    1
3     1     11    1
4     1     12    1
5     2     3     1
6     2     13    1
7     2     14    1
8     3     4     1
9     3     6     1
10    4     5     1
11    4     15    1
12    4     16    1
13    5     17    1
14    5     18    1
15    5     19    1
16    6     7     2
17    6     8     1
18    8     9     1
19    9     20    1
20    9     21    1
21    9     22    1
@<TRIPOS>SUBSTRUCTURE
1   LIG    1    
 
########## Number      : 273
########## Name        : ZINC00001291
########## Description : AM1BCC_CHARGES =  -0.0000 ORIGINAL_CHARGES =  -0.0000

@<TRIPOS>MOLECULE
ZINC00001291
31    31    1     0     0    
SMALL
USER_CHARGES
****
****
@<TRIPOS>ATOM
1     C1       5.4315   -7.1105   -0.8457 C.3     1  LIG  -0.1191   0.0000 
2     C2       4.0491   -7.4460   -1.3858 C.3     1  LIG   0.0960   0.3001 
3     N1       2.9963   -6.6251   -0.7807 N.am    1  LIG  -0.4746  -0.6602 
4     C3       2.1530   -7.2578    0.2466 C.3     1  LIG   0.0945   0.3001 
5     C4       2.8702   -7.4350    1.5745 C.3     1  LIG  -0.1185   0.0000 
6     C5       2.8380   -5.3121   -1.2445 C.2     1  LIG   0.6703   0.5438 
7     O1       3.4786   -4.8027   -2.1629 O.2     1  LIG  -0.5944  -0.5700 
8     C6       1.8369   -4.4559   -0.5936 C.ar    1  LIG  -0.1237   0.0862 
9     C7       0.6472   -4.1731   -1.2654 C.ar    1  LIG  -0.1002  -0.1500 
10    C8      -0.2894   -3.3356   -0.6641 C.ar    1  LIG  -0.1296  -0.1500 
11    C9      -0.0319   -2.7827    0.5934 C.ar    1  LIG  -0.1190  -0.1500 
12    C10      1.1652   -3.0644    1.2669 C.ar    1  LIG  -0.0792  -0.1435 
13    C11      2.1130   -3.8935    0.6558 C.ar    1  LIG  -0.1056  -0.1500 
14    C12      1.4543   -2.4336    2.5958 C.3     1  LIG  -0.0549   0.1435 
15    H1       6.1872   -7.7407   -1.3249 H       1  LIG   0.0410   0.0000 
16    H2       5.6911   -6.0647   -1.0381 H       1  LIG   0.0570   0.0000 
17    H3       5.4901   -7.2715    0.2344 H       1  LIG   0.0319   0.0000 
18    H4       4.0400   -7.2733   -2.4683 H       1  LIG   0.0653   0.0000 
19    H5       3.8238   -8.5055   -1.2232 H       1  LIG   0.0427   0.0000 
20    H6       1.2432   -6.6737    0.4071 H       1  LIG   0.0611   0.0000 
21    H7       1.8275   -8.2309   -0.1388 H       1  LIG   0.0424   0.0000 
22    H8       2.1796   -7.8278    2.3272 H       1  LIG   0.0428   0.0000 
23    H9       3.6995   -8.1430    1.4843 H       1  LIG   0.0406   0.0000 
24    H10      3.2747   -6.4867    1.9402 H       1  LIG   0.0406   0.0000 
25    H11      0.4450   -4.5960   -2.2454 H       1  LIG   0.1446   0.1500 
26    H12     -1.2203   -3.1069   -1.1755 H       1  LIG   0.1360   0.1500 
27    H13     -0.7717   -2.1248    1.0434 H       1  LIG   0.1341   0.1500 
28    H14      3.0596   -4.0971    1.1499 H       1  LIG   0.1391   0.1500 
29    H15      0.5298   -2.2646    3.1578 H       1  LIG   0.0441   0.0000 
30    H16      2.0903   -3.0834    3.2063 H       1  LIG   0.0434   0.0000 
31    H17      1.9618   -1.4747    2.4526 H       1  LIG   0.0513   0.0000 
@<TRIPOS>BOND
1     1     2     1
2     1     15    1
3     1     16    1
4     1     17    1
5     2     3     1
6     2     18    1
7     2     19    1
8     3     4     1
9     3     6     am
10    4     5     1
11    4     20    1
12    4     21    1
13    5     22    1
14    5     23    1
15    5     24    1
16    6     7     2
17    6     8     1
18    8     13    ar
19    8     9     ar
20    9     10    ar
21    9     25    1
22    10    11    ar
23    10    26    1
24    11    12    ar
25    11    27    1
26    12    13    ar
27    12    14    1
28    13    28    1
29    14    29    1
30    14    30    1
31    14    31    1
@<TRIPOS>SUBSTRUCTURE
1   LIG    1    
 
########## Number      : 274
########## Name        : ZINC00001292
########## Description : AM1BCC_CHARGES =   1.0001 ORIGINAL_CHARGES =   1.0000

@<TRIPOS>MOLECULE
ZINC00001292
52    53    1     0     0    
SMALL
USER_CHARGES
****
****
@<TRIPOS>ATOM
1     C1       4.3900  -11.1755   -0.5788 C.3     1  LIG  -0.1357   0.0000 
2     C2       4.4215  -10.9976   -2.0868 C.3     1  LIG   0.1106   0.5030 
3     C3       5.9550  -10.0863   -3.8669 C.3     1  LIG   0.1099   0.5030 
4     C4       7.0867  -11.0987   -3.8476 C.3     1  LIG  -0.1359   0.0000 
5     C5       4.7839   -8.5129   -2.2876 C.3     1  LIG   0.0535   0.5030 
6     C6       5.8658   -7.4781   -1.9871 C.3     1  LIG   0.1157   0.2800 
7     O1       5.2800   -6.1872   -1.8075 O.3     1  LIG  -0.3041  -0.3625 
8     C7       4.8616   -5.8186   -0.5584 C.ar    1  LIG   0.1085   0.0825 
9     C8       4.8589   -6.6198    0.5839 C.ar    1  LIG  -0.2234  -0.1500 
10    C9       4.3943   -6.1135    1.8048 C.ar    1  LIG  -0.0555  -0.1500 
11    C10      3.9254   -4.7995    1.8956 C.ar    1  LIG  -0.1810   0.0862 
12    C11      3.9246   -3.9974    0.7495 C.ar    1  LIG  -0.0393  -0.1500 
13    C12      4.3885   -4.5064   -0.4660 C.ar    1  LIG  -0.1439  -0.1500 
14    C13      3.4223   -4.2228    3.1775 C.2     1  LIG   0.5717   0.4228 
15    O2       3.0125   -3.0643    3.1936 O.2     1  LIG  -0.5116  -0.5700 
16    C14      3.4342   -5.0932    4.4241 C.3     1  LIG  -0.1697   0.0610 
17    C15      2.8982   -4.3496    5.6492 C.3     1  LIG  -0.0319   0.1435 
18    C16      2.9149   -5.2208    6.8790 C.ar    1  LIG  -0.0911  -0.1435 
19    C17      4.0455   -5.2609    7.7060 C.ar    1  LIG  -0.1266  -0.1500 
20    C18      4.0668   -6.0816    8.8348 C.ar    1  LIG  -0.1263  -0.1500 
21    C19      2.9614   -6.8720    9.1444 C.ar    1  LIG  -0.1257  -0.1500 
22    C20      1.8345   -6.8441    8.3248 C.ar    1  LIG  -0.1272  -0.1500 
23    C21      1.8111   -6.0242    7.1955 C.ar    1  LIG  -0.1283  -0.1500 
24    H1       3.7161  -11.9969   -0.3149 H       1  LIG   0.1030   0.0000 
25    H2       5.3844  -11.4200   -0.1908 H       1  LIG   0.0665   0.0000 
26    H3       4.0352  -10.2782   -0.0642 H       1  LIG   0.0662   0.0000 
27    H4       4.7609  -11.9269   -2.5529 H       1  LIG   0.1038   0.0000 
28    H5       3.4405  -10.7347   -2.4965 H       1  LIG   0.1062   0.0000 
29    H6       5.1301  -10.3949   -4.5177 H       1  LIG   0.1060   0.0000 
30    H7       6.3386   -9.1235   -4.2161 H       1  LIG   0.1038   0.0000 
31    H8       7.5100  -11.2028   -4.8518 H       1  LIG   0.1033   0.0000 
32    H9       7.8904  -10.7775   -3.1768 H       1  LIG   0.0669   0.0000 
33    H10      6.7498  -12.0881   -3.5264 H       1  LIG   0.0669   0.0000 
34    H11      4.2207   -8.2694   -3.1961 H       1  LIG   0.1193   0.0000 
35    H12      4.0644   -8.5593   -1.4656 H       1  LIG   0.1129   0.0000 
36    H13      6.5079   -7.7619   -1.1455 H       1  LIG   0.0687   0.0000 
37    H14      6.5361   -7.3840   -2.8480 H       1  LIG   0.0887   0.0000 
38    H15      5.2043   -7.6483    0.5682 H       1  LIG   0.1145   0.1500 
39    H16      4.4112   -6.7748    2.6662 H       1  LIG   0.1473   0.1500 
40    H17      3.5666   -2.9712    0.7804 H       1  LIG   0.1785   0.1500 
41    H18      4.3792   -3.8665   -1.3457 H       1  LIG   0.1667   0.1500 
42    H19      2.8152   -5.9783    4.2358 H       1  LIG   0.0667   0.0000 
43    H20      4.4653   -5.4132    4.6151 H       1  LIG   0.0698   0.0000 
44    H21      3.4908   -3.4441    5.8344 H       1  LIG   0.0676   0.0000 
45    H22      1.8748   -3.9982    5.4638 H       1  LIG   0.0670   0.0000 
46    H23      4.9168   -4.6529    7.4752 H       1  LIG   0.1318   0.1500 
47    H24      4.9463   -6.1049    9.4719 H       1  LIG   0.1358   0.1500 
48    H25      2.9788   -7.5105   10.0229 H       1  LIG   0.1367   0.1500 
49    H26      0.9737   -7.4619    8.5644 H       1  LIG   0.1348   0.1500 
50    H27      0.9264   -6.0159    6.5636 H       1  LIG   0.1301   0.1500 
51    N1       5.3977   -9.8933   -2.4645 N.4     1  LIG  -0.6851  -0.9590 
52    H28      6.1916   -9.9603   -1.8131 H       1  LIG   0.4430   0.4500 
@<TRIPOS>BOND
1     1     2     1
2     1     24    1
3     1     25    1
4     1     26    1
5     2     27    1
6     2     28    1
7     2     51    1
8     3     4     1
9     3     29    1
10    3     30    1
11    3     51    1
12    4     31    1
13    4     32    1
14    4     33    1
15    5     6     1
16    5     34    1
17    5     35    1
18    5     51    1
19    6     7     1
20    6     36    1
21    6     37    1
22    7     8     1
23    8     13    ar
24    8     9     ar
25    9     10    ar
26    9     38    1
27    10    11    ar
28    10    39    1
29    11    12    ar
30    11    14    1
31    12    13    ar
32    12    40    1
33    13    41    1
34    14    15    2
35    14    16    1
36    16    17    1
37    16    42    1
38    16    43    1
39    17    18    1
40    17    44    1
41    17    45    1
42    18    23    ar
43    18    19    ar
44    19    20    ar
45    19    46    1
46    20    21    ar
47    20    47    1
48    21    22    ar
49    21    48    1
50    22    23    ar
51    22    49    1
52    23    50    1
53    51    52    1
@<TRIPOS>SUBSTRUCTURE
1   LIG    1    
 
########## Number      : 275
########## Name        : ZINC00001293
########## Description : AM1BCC_CHARGES =   0.0003 ORIGINAL_CHARGES =  -0.0000

@<TRIPOS>MOLECULE
ZINC00001293
38    40    1     0     0    
SMALL
USER_CHARGES
****
****
@<TRIPOS>ATOM
1     C1       4.0966  -11.0981   -2.1986 C.ar    1  LIG  -0.1263  -0.1500 
2     C2       5.0599  -11.2063   -1.1997 C.ar    1  LIG  -0.1308  -0.1500 
3     C3       5.0488  -10.3231   -0.1165 C.ar    1  LIG  -0.1159  -0.1500 
4     C4       4.0749   -9.3140   -0.0109 C.ar    1  LIG  -0.0418   0.0000 
5     C5       3.1122   -9.2238   -1.0323 C.ar    1  LIG  -0.1181  -0.1500 
6     C6       3.1226  -10.1073   -2.1152 C.ar    1  LIG  -0.1311  -0.1500 
7     C7       4.0633   -8.3818    1.1322 C.ar    1  LIG  -0.0294   0.0000 
8     C8       4.1722   -8.8493    2.4528 C.ar    1  LIG  -0.1173  -0.1500 
9     C9       4.1612   -7.9664    3.5374 C.ar    1  LIG  -0.1114  -0.1500 
10    C10      4.0356   -6.5890    3.3307 C.ar    1  LIG  -0.0758  -0.1435 
11    C11      3.9355   -6.1099    2.0208 C.ar    1  LIG  -0.1114  -0.1500 
12    C12      3.9459   -6.9951    0.9380 C.ar    1  LIG  -0.1173  -0.1500 
13    C13      4.0453   -5.6357    4.4967 C.3     1  LIG  -0.1058   0.2045 
14    C14      5.4372   -5.1629    4.8877 C.2     1  LIG   0.6699   0.5690 
15    O1       6.4455   -5.5117    4.2824 O.2     1  LIG  -0.5681  -0.5700 
16    N1       5.3748   -4.3135    5.9855 N.am    1  LIG  -0.5603  -0.5470 
17    C15      6.4365   -3.6656    6.6519 C.ar    1  LIG   0.5320   0.4270 
18    C16      7.7701   -3.7969    6.2789 C.ar    1  LIG  -0.2637  -0.1500 
19    C17      8.7420   -3.1112    7.0079 C.ar    1  LIG  -0.0714  -0.1500 
20    C18      8.3707   -2.3166    8.0826 C.ar    1  LIG  -0.2799  -0.1500 
21    C19      7.0256   -2.2408    8.3864 C.ar    1  LIG   0.4254   0.1600 
22    N2       6.0591   -2.8921    7.7007 N.ar    1  LIG  -0.7241  -0.6200 
23    H1       4.4636   -4.1099    6.3864 H       1  LIG   0.3281   0.3700 
24    H2       4.1050  -11.7845   -3.0402 H       1  LIG   0.1317   0.1500 
25    H3       5.8231  -11.9767   -1.2623 H       1  LIG   0.1326   0.1500 
26    H4       5.8210  -10.4266    0.6433 H       1  LIG   0.1373   0.1500 
27    H5       2.3323   -8.4661   -0.9903 H       1  LIG   0.1344   0.1500 
28    H6       2.3677  -10.0210   -2.8916 H       1  LIG   0.1319   0.1500 
29    H7       4.2596   -9.9149    2.6555 H       1  LIG   0.1377   0.1500 
30    H8       4.2517   -8.3652    4.5449 H       1  LIG   0.1331   0.1500 
31    H9       3.8524   -5.0426    1.8305 H       1  LIG   0.1331   0.1500 
32    H10      3.8736   -6.5829   -0.0666 H       1  LIG   0.1379   0.1500 
33    H11      3.4314   -4.7575    4.2591 H       1  LIG   0.0736   0.0000 
34    H12      3.5792   -6.1161    5.3664 H       1  LIG   0.0730   0.0000 
35    H13      8.0945   -4.4079    5.4465 H       1  LIG   0.1825   0.1500 
36    H14      9.7891   -3.2003    6.7328 H       1  LIG   0.1405   0.1500 
37    H15      9.1092   -1.7754    8.6623 H       1  LIG   0.1444   0.1500 
38    H16      6.6745   -1.6355    9.2157 H       1  LIG   0.0211   0.1500 
@<TRIPOS>BOND
1     1     6     ar
2     1     2     ar
3     1     24    1
4     2     3     ar
5     2     25    1
6     3     4     ar
7     3     26    1
8     4     5     ar
9     4     7     1
10    5     6     ar
11    5     27    1
12    6     28    1
13    7     12    ar
14    7     8     ar
15    8     9     ar
16    8     29    1
17    9     10    ar
18    9     30    1
19    10    11    ar
20    10    13    1
21    11    12    ar
22    11    31    1
23    12    32    1
24    13    14    1
25    13    33    1
26    13    34    1
27    14    15    2
28    14    16    am
29    16    17    1
30    16    23    1
31    17    22    ar
32    17    18    ar
33    18    19    ar
34    18    35    1
35    19    20    ar
36    19    36    1
37    20    21    ar
38    20    37    1
39    21    22    ar
40    21    38    1
@<TRIPOS>SUBSTRUCTURE
1   LIG    1    
 
########## Number      : 276
########## Name        : ZINC00001295
########## Description : AM1BCC_CHARGES =  -0.0001 ORIGINAL_CHARGES =   0.0000

@<TRIPOS>MOLECULE
ZINC00001295
33    34    1     0     0    
SMALL
USER_CHARGES
****
****
@<TRIPOS>ATOM
1     C1       4.7767   -3.5864    6.0381 C.ar    1  LIG  -0.2137  -0.1500 
2     C2       3.8118   -3.9013    5.0793 C.ar    1  LIG   0.0132  -0.1500 
3     C3       4.1845   -3.9743    3.7408 C.ar    1  LIG  -0.4151  -0.0090 
4     C4       5.5006   -3.7325    3.3494 C.ar    1  LIG   0.0316  -0.1500 
5     C5       6.4616   -3.4178    4.3142 C.ar    1  LIG  -0.2176  -0.1500 
6     C6       6.1078   -3.3430    5.6664 C.ar    1  LIG   0.1435   0.1170 
7     N1       7.0175   -3.0320    6.7002 N.am    1  LIG  -0.4848  -0.5470 
8     C7       8.3569   -2.7591    6.5761 C.2     1  LIG   0.6633   0.5700 
9     O1       9.1011   -2.4944    7.5154 O.2     1  LIG  -0.5663  -0.5700 
10    S1       2.9874   -4.3787    2.5047 S.o2    1  LIG   1.4529   1.3180 
11    O2       1.7701   -4.8019    3.1707 O.2     1  LIG  -0.6596  -0.6500 
12    O3       2.9743   -3.2563    1.5857 O.2     1  LIG  -0.6597  -0.6500 
13    C8       3.5794   -5.8000    1.6363 C.ar    1  LIG  -0.4160  -0.0090 
14    C9       3.8720   -6.9562    2.3584 C.ar    1  LIG   0.0314  -0.1500 
15    C10      4.3472   -8.0872    1.6888 C.ar    1  LIG  -0.2175  -0.1500 
16    C11      4.5276   -8.0635    0.3009 C.ar    1  LIG   0.1435   0.1170 
17    C12      4.2234   -6.8907   -0.4068 C.ar    1  LIG  -0.2138  -0.1500 
18    C13      3.7484   -5.7573    0.2559 C.ar    1  LIG   0.0143  -0.1500 
19    N2       5.0029   -9.1616   -0.4481 N.am    1  LIG  -0.4848  -0.5470 
20    C14      5.3610  -10.3993    0.0249 C.2     1  LIG   0.6632   0.5700 
21    O4       5.7694  -11.3192   -0.6775 O.2     1  LIG  -0.5662  -0.5700 
22    H1       6.6448   -3.0056    7.6452 H       1  LIG   0.3291   0.3700 
23    H2       5.0922   -9.0270   -1.4514 H       1  LIG   0.3293   0.3700 
24    H3       4.4756   -3.5325    7.0822 H       1  LIG   0.1458   0.1500 
25    H4       2.7896   -4.0823    5.3977 H       1  LIG   0.1680   0.1500 
26    H5       5.7945   -3.7813    2.3043 H       1  LIG   0.1442   0.1500 
27    H6       7.4749   -3.2363    3.9718 H       1  LIG   0.1397   0.1500 
28    H7       8.7407   -2.7925    5.5486 H       1  LIG   0.0524   0.0600 
29    H8       3.7345   -6.9964    3.4357 H       1  LIG   0.1440   0.1500 
30    H9       4.5641   -8.9679    2.2841 H       1  LIG   0.1395   0.1500 
31    H10      4.3530   -6.8470   -1.4862 H       1  LIG   0.1457   0.1500 
32    H11      3.5198   -4.8653   -0.3196 H       1  LIG   0.1678   0.1500 
33    H12      5.2578  -10.5255    1.1100 H       1  LIG   0.0526   0.0600 
@<TRIPOS>BOND
1     1     6     ar
2     1     2     ar
3     1     24    1
4     2     3     ar
5     2     25    1
6     3     4     ar
7     3     10    1
8     4     5     ar
9     4     26    1
10    5     6     ar
11    5     27    1
12    6     7     1
13    7     8     am
14    7     22    1
15    8     9     2
16    8     28    1
17    10    11    2
18    10    12    2
19    10    13    1
20    13    18    ar
21    13    14    ar
22    14    15    ar
23    14    29    1
24    15    16    ar
25    15    30    1
26    16    17    ar
27    16    19    1
28    17    18    ar
29    17    31    1
30    18    32    1
31    19    20    am
32    19    23    1
33    20    21    2
34    20    33    1
@<TRIPOS>SUBSTRUCTURE
1   LIG    1    
 
########## Number      : 277
########## Name        : ZINC00001307
########## Description : AM1BCC_CHARGES =   0.0001 ORIGINAL_CHARGES =  -0.0000

@<TRIPOS>MOLECULE
ZINC00001307
17    17    1     0     0    
SMALL
USER_CHARGES
****
****
@<TRIPOS>ATOM
1     C1       7.0800   -9.0366   -0.0497 C.3     1  LIG  -0.1362   0.1800 
2     C2       5.6134   -8.9464   -0.2636 C.2     1  LIG   0.4563   0.0065 
3     N1       4.7231   -8.7240    0.6861 N.2     1  LIG  -0.6732  -0.5653 
4     C3       3.5035   -8.7286    0.0640 C.2     1  LIG   0.4249   0.0772 
5     C4       3.6524   -8.9666   -1.2790 C.2     1  LIG  -0.3629  -0.0716 
6     N2       5.0013   -9.0828   -1.4972 N.pl3   1  LIG  -0.1572   0.0476 
7     C5       5.6799   -9.2713   -2.7592 C.3     1  LIG   0.0131   0.2556 
8     N3       2.6377   -9.0672   -2.2724 N.pl3   1  LIG   0.3610   0.9600 
9     O1       2.9030   -9.6761   -3.3143 O.2     1  LIG  -0.2288  -0.5200 
10    O2       1.5492   -8.5473   -1.9985 O.3     1  LIG  -0.1934  -0.5200 
11    H1       7.3130   -8.9962    1.0192 H       1  LIG   0.0875   0.0000 
12    H2       7.4751   -9.9782   -0.4430 H       1  LIG   0.0595   0.0000 
13    H3       7.5939   -8.2028   -0.5374 H       1  LIG   0.0611   0.0000 
14    H4       2.5909   -8.5710    0.6216 H       1  LIG   0.0708   0.1500 
15    H5       5.2718   -8.5681   -3.4896 H       1  LIG   0.0784   0.0000 
16    H6       6.7481   -9.0740   -2.6501 H       1  LIG   0.0618   0.0000 
17    H7       5.5288  -10.3049   -3.0797 H       1  LIG   0.0774   0.0000 
@<TRIPOS>BOND
1     1     2     1
2     1     11    1
3     1     12    1
4     1     13    1
5     2     6     1
6     2     3     2
7     3     4     1
8     4     5     2
9     4     14    1
10    5     6     1
11    5     8     1
12    6     7     1
13    7     15    1
14    7     16    1
15    7     17    1
16    8     9     2
17    8     10    1
@<TRIPOS>SUBSTRUCTURE
1   LIG    1    
 
########## Number      : 278
########## Name        : ZINC00001309
########## Description : AM1BCC_CHARGES =  -0.0001 ORIGINAL_CHARGES =   0.0000

@<TRIPOS>MOLECULE
ZINC00001309
40    40    1     0     0    
SMALL
USER_CHARGES
****
****
@<TRIPOS>ATOM
1     C1       3.5464   -5.8158   -5.2033 C.3     1  LIG  -0.1143   0.0000 
2     C2       3.8377   -6.6082   -3.9459 C.3     1  LIG   0.1597   0.2800 
3     O1       2.6081   -6.8872   -3.2943 O.3     1  LIG  -0.5579  -0.5512 
4     P1       2.5291   -7.1012   -1.6874 P.3     1  LIG   1.2780   1.4909 
5     S1       3.9178   -8.1856   -0.8580 S.2     1  LIG  -0.5653  -0.6773 
6     O2       2.3189   -5.6074   -1.0875 O.3     1  LIG  -0.5697  -0.5512 
7     C3       3.3192   -4.6109   -1.2186 C.3     1  LIG   0.1521   0.2800 
8     C4       3.0022   -3.4824   -0.2592 C.3     1  LIG  -0.1081   0.0000 
9     O3       1.0496   -7.7375   -1.5075 O.3     1  LIG  -0.5729  -0.3537 
10    C5      -0.1422   -7.2381   -1.9575 C.ar    1  LIG   0.7212   0.3925 
11    C6      -0.2680   -6.0611   -2.6657 C.ar    1  LIG  -0.4188  -0.1500 
12    C7      -1.5511   -5.7018   -3.0457 C.ar    1  LIG   0.4785   0.1665 
13    N1      -2.6354   -6.4489   -2.7491 N.ar    1  LIG  -0.7099  -0.6200 
14    C8      -2.4127   -7.5834   -2.0529 C.ar    1  LIG   0.6793   0.4765 
15    N2      -1.2012   -8.0123   -1.6416 N.ar    1  LIG  -0.6987  -0.6200 
16    C9      -3.6024   -8.4465   -1.7018 C.3     1  LIG  -0.0983   0.1435 
17    C10     -4.5801   -7.6892   -0.8041 C.3     1  LIG  -0.0917   0.0000 
18    C11     -4.2963   -8.9587   -2.9635 C.3     1  LIG  -0.0903   0.0000 
19    C12     -1.7784   -4.4384   -3.8183 C.3     1  LIG  -0.1576   0.1435 
20    H1       4.4688   -5.5907   -5.7457 H       1  LIG   0.0559   0.0000 
21    H2       2.8745   -6.3734   -5.8642 H       1  LIG   0.0584   0.0000 
22    H3       3.0421   -4.8754   -4.9572 H       1  LIG   0.0428   0.0000 
23    H4       4.3187   -7.5571   -4.2017 H       1  LIG   0.0740   0.0000 
24    H5       4.5073   -6.0437   -3.2921 H       1  LIG   0.0594   0.0000 
25    H6       4.3039   -5.0294   -0.9925 H       1  LIG   0.0848   0.0000 
26    H7       3.3146   -4.2367   -2.2461 H       1  LIG   0.0500   0.0000 
27    H8       3.7462   -2.6845   -0.3354 H       1  LIG   0.0551   0.0000 
28    H9       2.0122   -3.0641   -0.4694 H       1  LIG   0.0529   0.0000 
29    H10      2.9806   -3.8485    0.7725 H       1  LIG   0.0535   0.0000 
30    H11      0.5716   -5.4315   -2.9255 H       1  LIG   0.1720   0.1500 
31    H12     -3.2410   -9.3187   -1.1416 H       1  LIG   0.0786   0.0000 
32    H13     -5.4094   -8.3378   -0.5020 H       1  LIG   0.0396   0.0000 
33    H14     -4.0823   -7.3345    0.1053 H       1  LIG   0.0412   0.0000 
34    H15     -5.0052   -6.8163   -1.3123 H       1  LIG   0.0508   0.0000 
35    H16     -5.1198   -9.6329   -2.7051 H       1  LIG   0.0390   0.0000 
36    H17     -4.7096   -8.1382   -3.5610 H       1  LIG   0.0520   0.0000 
37    H18     -3.5954   -9.5120   -3.5986 H       1  LIG   0.0400   0.0000 
38    H19     -1.2353   -4.4726   -4.7679 H       1  LIG   0.0577   0.0000 
39    H20     -2.8420   -4.3020   -4.0392 H       1  LIG   0.0703   0.0000 
40    H21     -1.4374   -3.5743   -3.2396 H       1  LIG   0.0566   0.0000 
@<TRIPOS>BOND
1     1     2     1
2     1     20    1
3     1     21    1
4     1     22    1
5     2     3     1
6     2     23    1
7     2     24    1
8     3     4     1
9     4     5     2
10    4     6     1
11    4     9     1
12    6     7     1
13    7     8     1
14    7     25    1
15    7     26    1
16    8     27    1
17    8     28    1
18    8     29    1
19    9     10    1
20    10    15    ar
21    10    11    ar
22    11    12    ar
23    11    30    1
24    12    13    ar
25    12    19    1
26    13    14    ar
27    14    15    ar
28    14    16    1
29    16    17    1
30    16    18    1
31    16    31    1
32    17    32    1
33    17    33    1
34    17    34    1
35    18    35    1
36    18    36    1
37    18    37    1
38    19    38    1
39    19    39    1
40    19    40    1
@<TRIPOS>SUBSTRUCTURE
1   LIG    1    
 
########## Number      : 279
########## Name        : ZINC00001310
########## Description : AM1BCC_CHARGES =  -0.0000 ORIGINAL_CHARGES =   0.0000

@<TRIPOS>MOLECULE
ZINC00001310
30    31    1     0     0    
SMALL
USER_CHARGES
****
****
@<TRIPOS>ATOM
1     C1       4.7252   -9.6793   -0.6804 C.ar    1  LIG  -0.0986  -0.1500 
2     C2       3.4311   -9.1859   -0.6535 C.ar    1  LIG  -0.1642  -0.1500 
3     C3       3.2143   -7.8372   -0.3748 C.ar    1  LIG  -0.1239  -0.1500 
4     C4       4.2832   -6.9470   -0.1358 C.ar    1  LIG  -0.0190   0.1170 
5     C5       5.6009   -7.4480   -0.1576 C.ar    1  LIG   0.1645   0.1000 
6     C6       5.7927   -8.8215   -0.4208 C.ar    1  LIG  -0.1880  -0.1500 
7     N1       6.7226   -6.7214    0.2275 N.pl3   1  LIG  -0.8070  -0.9000 
8     N2       3.8767   -5.6091    0.1258 N.am    1  LIG  -0.4612  -0.5470 
9     C7       4.6227   -4.4428    0.1125 C.2     1  LIG   0.6793   0.5438 
10    O1       5.7855   -4.3031   -0.2487 O.2     1  LIG  -0.6199  -0.5700 
11    C8       3.8771   -3.2262    0.5328 C.ar    1  LIG  -0.2019   0.0862 
12    C9       2.9135   -3.2711    1.5451 C.ar    1  LIG  -0.0570  -0.1500 
13    C10      2.2442   -2.1034    1.9236 C.ar    1  LIG  -0.2130  -0.1500 
14    C11      2.5220   -0.8812    1.3008 C.ar    1  LIG   0.1826   0.1000 
15    C12      3.5068   -0.8433    0.3074 C.ar    1  LIG  -0.2117  -0.1500 
16    C13      4.1817   -2.0053   -0.0769 C.ar    1  LIG  -0.0315  -0.1500 
17    N3       1.8761    0.2788    1.7004 N.pl3   1  LIG  -0.8335  -0.9000 
18    H1       7.6428   -7.1156    0.0805 H       1  LIG   0.3840   0.4000 
19    H2       6.6637   -5.7137    0.2903 H       1  LIG   0.4129   0.4000 
20    H3       2.8742   -5.4988    0.2550 H       1  LIG   0.3106   0.3700 
21    H4       1.1269    0.2374    2.3785 H       1  LIG   0.4037   0.4000 
22    H5       2.0401    1.1480    1.2102 H       1  LIG   0.4043   0.4000 
23    H6       4.9073  -10.7300   -0.8853 H       1  LIG   0.1308   0.1500 
24    H7       2.5896   -9.8456   -0.8432 H       1  LIG   0.1317   0.1500 
25    H8       2.1856   -7.4804   -0.3589 H       1  LIG   0.1265   0.1500 
26    H9       6.7985   -9.2385   -0.4124 H       1  LIG   0.1322   0.1500 
27    H10      2.6819   -4.1953    2.0674 H       1  LIG   0.1336   0.1500 
28    H11      1.5023   -2.1558    2.7174 H       1  LIG   0.1363   0.1500 
29    H12      3.7579    0.0966   -0.1790 H       1  LIG   0.1386   0.1500 
30    H13      4.9370   -1.9422   -0.8564 H       1  LIG   0.1588   0.1500 
@<TRIPOS>BOND
1     1     6     ar
2     1     2     ar
3     1     23    1
4     2     3     ar
5     2     24    1
6     3     4     ar
7     3     25    1
8     4     5     ar
9     4     8     1
10    5     6     ar
11    5     7     1
12    6     26    1
13    7     18    1
14    7     19    1
15    8     9     am
16    8     20    1
17    9     10    2
18    9     11    1
19    11    16    ar
20    11    12    ar
21    12    13    ar
22    12    27    1
23    13    14    ar
24    13    28    1
25    14    15    ar
26    14    17    1
27    15    16    ar
28    15    29    1
29    16    30    1
30    17    21    1
31    17    22    1
@<TRIPOS>SUBSTRUCTURE
1   LIG    1    
 
########## Number      : 280
########## Name        : ZINC00001313
########## Description : AM1BCC_CHARGES =  -0.0001 ORIGINAL_CHARGES =  -0.0000

@<TRIPOS>MOLECULE
ZINC00001313
42    45    1     0     0    
SMALL
USER_CHARGES
****
****
@<TRIPOS>ATOM
1     C1      -0.5808    8.1769    6.1281 C.ar    1  LIG  -0.1218  -0.1500 
2     C2      -0.1110    7.3178    7.1182 C.ar    1  LIG  -0.1338  -0.1500 
3     C3       0.7671    6.2836    6.7881 C.ar    1  LIG  -0.1194  -0.1500 
4     C4       1.1833    6.0881    5.4596 C.ar    1  LIG  -0.0863  -0.1435 
5     C5       0.7087    6.9712    4.4760 C.ar    1  LIG  -0.0956  -0.1500 
6     C6      -0.1695    8.0052    4.8087 C.ar    1  LIG  -0.1328  -0.1500 
7     C7       2.1601    4.9530    5.1376 C.3     1  LIG   0.0443   0.4252 
8     C8       1.7679    4.1446    3.8992 C.ar    1  LIG  -0.0768  -0.1435 
9     C9       2.3041    4.3959    2.6260 C.ar    1  LIG  -0.1267  -0.1500 
10    C10      1.9043    3.6407    1.5206 C.ar    1  LIG  -0.1298  -0.1500 
11    C11      0.9598    2.6281    1.6686 C.ar    1  LIG  -0.1245  -0.1500 
12    C12      0.4104    2.3708    2.9216 C.ar    1  LIG  -0.1288  -0.1500 
13    C13      0.8084    3.1245    4.0273 C.ar    1  LIG  -0.1061  -0.1500 
14    C14      3.6222    5.4015    5.1521 C.2     1  LIG   0.2874  -0.0615 
15    O1       3.8268    6.6525    4.5802 O.3     1  LIG  -0.4834  -0.5267 
16    C15      4.6412    4.6885    5.6667 C.2     1  LIG  -0.4528   0.0288 
17    C16      4.5922    3.3262    6.2807 C.2     1  LIG   0.6192   0.4694 
18    O2       3.6443    2.5884    6.4394 O.2     1  LIG  -0.5327  -0.5700 
19    C17      5.9782    3.0267    6.6623 C.ar    1  LIG  -0.1426   0.0862 
20    C18      6.4599    1.8847    7.2740 C.ar    1  LIG  -0.0740  -0.1500 
21    C19      7.8309    1.8244    7.5393 C.ar    1  LIG  -0.1175  -0.1500 
22    C20      8.6824    2.8913    7.1924 C.ar    1  LIG  -0.1224  -0.1500 
23    C21      8.1795    4.0389    6.5735 C.ar    1  LIG  -0.0697  -0.1500 
24    C22      6.8219    4.0820    6.3189 C.ar    1  LIG  -0.1460   0.0862 
25    C23      6.0591    5.1618    5.6853 C.2     1  LIG   0.6108   0.4694 
26    O3       6.5013    6.2120    5.2699 O.2     1  LIG  -0.5613  -0.5700 
27    H1      -1.2629    8.9820    6.3850 H       1  LIG   0.1317   0.1500 
28    H2      -0.4259    7.4532    8.1489 H       1  LIG   0.1324   0.1500 
29    H3       1.1252    5.6286    7.5790 H       1  LIG   0.1342   0.1500 
30    H4       1.0223    6.8717    3.4405 H       1  LIG   0.1427   0.1500 
31    H5      -0.5291    8.6790    4.0362 H       1  LIG   0.1332   0.1500 
32    H6       2.0423    4.2527    5.9746 H       1  LIG   0.1149   0.0000 
33    H7       3.0338    5.1862    2.4723 H       1  LIG   0.1396   0.1500 
34    H8       2.3295    3.8468    0.5424 H       1  LIG   0.1327   0.1500 
35    H9       0.6500    2.0428    0.8078 H       1  LIG   0.1323   0.1500 
36    H10     -0.3295    1.5843    3.0396 H       1  LIG   0.1340   0.1500 
37    H11      0.3636    2.9087    4.9963 H       1  LIG   0.1400   0.1500 
38    H12      4.7714    6.8812    4.6377 H       1  LIG   0.4663   0.4500 
39    H13      5.8059    1.0620    7.5410 H       1  LIG   0.1552   0.1500 
40    H14      8.2479    0.9426    8.0196 H       1  LIG   0.1397   0.1500 
41    H15      9.7453    2.8188    7.4097 H       1  LIG   0.1399   0.1500 
42    H16      8.8361    4.8595    6.3064 H       1  LIG   0.1542   0.1500 
@<TRIPOS>BOND
1     1     6     ar
2     1     2     ar
3     1     27    1
4     2     3     ar
5     2     28    1
6     3     4     ar
7     3     29    1
8     4     5     ar
9     4     7     1
10    5     6     ar
11    5     30    1
12    6     31    1
13    7     8     1
14    7     14    1
15    7     32    1
16    8     13    ar
17    8     9     ar
18    9     10    ar
19    9     33    1
20    10    11    ar
21    10    34    1
22    11    12    ar
23    11    35    1
24    12    13    ar
25    12    36    1
26    13    37    1
27    14    16    2
28    14    15    1
29    15    38    1
30    16    17    1
31    16    25    1
32    17    18    2
33    17    19    1
34    19    24    ar
35    19    20    ar
36    20    21    ar
37    20    39    1
38    21    22    ar
39    21    40    1
40    22    23    ar
41    22    41    1
42    23    24    ar
43    23    42    1
44    24    25    1
45    25    26    2
@<TRIPOS>SUBSTRUCTURE
1   LIG    1    
 
########## Number      : 281
########## Name        : ZINC00001314
########## Description : AM1BCC_CHARGES =  -0.0003 ORIGINAL_CHARGES =   0.0000

@<TRIPOS>MOLECULE
ZINC00001314
30    31    1     0     0    
SMALL
USER_CHARGES
****
****
@<TRIPOS>ATOM
1     C1       5.3213   -9.3221    0.8059 C.ar    1  LIG  -0.1290  -0.1500 
2     C2       4.3984   -9.0999   -0.2143 C.ar    1  LIG  -0.1266  -0.1500 
3     C3       3.4339   -8.0999   -0.0794 C.ar    1  LIG  -0.1224  -0.1500 
4     C4       3.3813   -7.3144    1.0808 C.ar    1  LIG  -0.0766  -0.1435 
5     C5       4.3182   -7.5435    2.0983 C.ar    1  LIG  -0.1227  -0.1500 
6     C6       5.2818   -8.5440    1.9613 C.ar    1  LIG  -0.1269  -0.1500 
7     C7       2.3521   -6.2196    1.2190 C.3     1  LIG   0.0067   0.2870 
8     C8       2.8208   -4.8865    0.6881 C.ar    1  LIG  -0.0715  -0.1435 
9     C9       2.6087   -4.5432   -0.6571 C.ar    1  LIG  -0.1157  -0.1500 
10    C10      3.0575   -3.3208   -1.1558 C.ar    1  LIG  -0.1196  -0.1500 
11    C11      3.7341   -2.4492   -0.3055 C.ar    1  LIG   0.1144   0.0825 
12    C12      3.9473   -2.7610    1.0353 C.ar    1  LIG  -0.1201  -0.1500 
13    C13      3.4957   -3.9852    1.5273 C.ar    1  LIG  -0.1159  -0.1500 
14    O1       4.1543   -1.2088   -0.7930 O.3     1  LIG  -0.3788  -0.2325 
15    C14      5.4428   -1.2311   -1.3106 C.2     1  LIG   0.7404   0.7800 
16    O2       6.1841   -2.2066   -1.3624 O.2     1  LIG  -0.5666  -0.5700 
17    N1       5.7865    0.0143   -1.7683 N.am    1  LIG  -0.6540  -0.8000 
18    H1       6.6962    0.1845   -2.1812 H       1  LIG   0.3341   0.3700 
19    H2       5.1416    0.7935   -1.7055 H       1  LIG   0.3278   0.3700 
20    H3       6.0720  -10.0998    0.6997 H       1  LIG   0.1309   0.1500 
21    H4       4.4303   -9.7041   -1.1164 H       1  LIG   0.1310   0.1500 
22    H5       2.7235   -7.9373   -0.8862 H       1  LIG   0.1290   0.1500 
23    H6       4.3035   -6.9433    3.0046 H       1  LIG   0.1289   0.1500 
24    H7       6.0027   -8.7149    2.7557 H       1  LIG   0.1308   0.1500 
25    H8       1.4263   -6.5161    0.7077 H       1  LIG   0.0555   0.0000 
26    H9       2.0621   -6.1161    2.2733 H       1  LIG   0.0555   0.0000 
27    H10      2.0897   -5.2283   -1.3230 H       1  LIG   0.1351   0.1500 
28    H11      2.8830   -3.0590   -2.1949 H       1  LIG   0.1461   0.1500 
29    H12      4.4613   -2.0659    1.6920 H       1  LIG   0.1450   0.1500 
30    H13      3.6710   -4.2334    2.5712 H       1  LIG   0.1349   0.1500 
@<TRIPOS>BOND
1     1     6     ar
2     1     2     ar
3     1     20    1
4     2     3     ar
5     2     21    1
6     3     4     ar
7     3     22    1
8     4     5     ar
9     4     7     1
10    5     6     ar
11    5     23    1
12    6     24    1
13    7     8     1
14    7     25    1
15    7     26    1
16    8     13    ar
17    8     9     ar
18    9     10    ar
19    9     27    1
20    10    11    ar
21    10    28    1
22    11    12    ar
23    11    14    1
24    12    13    ar
25    12    29    1
26    13    30    1
27    14    15    1
28    15    16    2
29    15    17    am
30    17    18    1
31    17    19    1
@<TRIPOS>SUBSTRUCTURE
1   LIG    1    
 
########## Number      : 282
########## Name        : ZINC00001318
########## Description : AM1BCC_CHARGES =  -0.0002 ORIGINAL_CHARGES =  -0.0000

@<TRIPOS>MOLECULE
ZINC00001318
19    20    1     0     0    
SMALL
USER_CHARGES
****
****
@<TRIPOS>ATOM
1     C1       5.0895   -9.0627   -1.4012 C.ar    1  LIG  -0.1347  -0.1500 
2     C2       4.4130   -8.4915   -2.4692 C.ar    1  LIG  -0.1114  -0.1500 
3     C3       3.3402   -7.6281   -2.2348 C.ar    1  LIG  -0.1283  -0.1500 
4     C4       2.9102   -7.3089   -0.9224 C.ar    1  LIG   0.0173   0.0000 
5     C5       3.6169   -7.9048    0.1552 C.ar    1  LIG  -0.0689   0.0000 
6     C6       4.6937   -8.7711   -0.0984 C.ar    1  LIG  -0.1075  -0.1500 
7     C7       3.2422   -7.6308    1.4792 C.ar    1  LIG  -0.0648  -0.1500 
8     C8       2.1800   -6.7770    1.7630 C.ar    1  LIG  -0.2021  -0.1500 
9     C9       1.4763   -6.1842    0.7205 C.ar    1  LIG   0.1546   0.0825 
10    C10      1.8276   -6.4393   -0.6123 C.ar    1  LIG  -0.0591   0.1110 
11    Br1      0.8136   -5.5878   -1.9926 Br      1  LIG  -0.0670  -0.1110 
12    O1       0.4326   -5.3456    1.0087 O.3     1  LIG  -0.4814  -0.5325 
13    H1       0.3316   -5.2852    1.9738 H       1  LIG   0.4230   0.4500 
14    H2       5.9240   -9.7344   -1.5796 H       1  LIG   0.1350   0.1500 
15    H3       4.7165   -8.7147   -3.4881 H       1  LIG   0.1354   0.1500 
16    H4       2.8452   -7.2081   -3.1069 H       1  LIG   0.1501   0.1500 
17    H5       5.2386   -9.2304    0.7243 H       1  LIG   0.1326   0.1500 
18    H6       3.7797   -8.0843    2.3102 H       1  LIG   0.1388   0.1500 
19    H7       1.9147   -6.5851    2.7988 H       1  LIG   0.1382   0.1500 
@<TRIPOS>BOND
1     1     6     ar
2     1     2     ar
3     1     14    1
4     2     3     ar
5     2     15    1
6     3     4     ar
7     3     16    1
8     4     10    ar
9     4     5     ar
10    5     6     ar
11    5     7     ar
12    6     17    1
13    7     8     ar
14    7     18    1
15    8     9     ar
16    8     19    1
17    9     10    ar
18    9     12    1
19    10    11    1
20    12    13    1
@<TRIPOS>SUBSTRUCTURE
1   LIG    1    
 
########## Number      : 283
########## Name        : ZINC00001322
########## Description : AM1BCC_CHARGES =  -0.0001 ORIGINAL_CHARGES =   0.0000

@<TRIPOS>MOLECULE
ZINC00001322
27    29    1     0     0    
SMALL
USER_CHARGES
****
****
@<TRIPOS>ATOM
1     C1       1.3601   -2.3951   -0.5867 C.ar    1  LIG  -0.0816  -0.1500 
2     C2       1.3380   -3.7307   -0.1926 C.ar    1  LIG  -0.1536  -0.1500 
3     C3       2.5287   -4.4417    0.0404 C.ar    1  LIG   0.0277   0.0000 
4     C4       2.4692   -5.7862    0.4365 C.ar    1  LIG  -0.1716  -0.1500 
5     C5       3.6227   -6.5459    0.6832 C.ar    1  LIG   0.0369   0.0000 
6     C6       3.5008   -7.8902    1.0779 C.ar    1  LIG  -0.1812  -0.1500 
7     C7       4.6247   -8.6729    1.3308 C.ar    1  LIG  -0.0671  -0.1500 
8     C8       5.8897   -8.1222    1.1926 C.ar    1  LIG  -0.2042  -0.1500 
9     C9       6.0241   -6.7889    0.8014 C.ar    1  LIG   0.1822   0.0825 
10    C10      4.8985   -5.9597    0.5347 C.ar    1  LIG  -0.1229   0.0000 
11    C11      4.9452   -4.5928    0.1318 C.ar    1  LIG   0.2106   0.0825 
12    C12      3.7802   -3.8088   -0.1223 C.ar    1  LIG  -0.1308   0.0000 
13    C13      3.7637   -2.4448   -0.5256 C.ar    1  LIG   0.1554   0.0825 
14    C14      2.5749   -1.7474   -0.7545 C.ar    1  LIG  -0.2396  -0.1500 
15    O1       4.9547   -1.7815   -0.6985 O.3     1  LIG  -0.5381  -0.5325 
16    O2       6.1992   -4.0346   -0.0089 O.3     1  LIG  -0.5367  -0.5325 
17    O3       7.3165   -6.3388    0.6934 O.3     1  LIG  -0.5073  -0.5325 
18    H1       4.7683   -0.8667   -0.9723 H       1  LIG   0.4390   0.4500 
19    H2       6.0998   -3.1067   -0.2849 H       1  LIG   0.4652   0.4500 
20    H3       7.2928   -5.4060    0.4174 H       1  LIG   0.4459   0.4500 
21    H4       0.4289   -1.8640   -0.7616 H       1  LIG   0.1362   0.1500 
22    H5       0.3719   -4.2169   -0.0676 H       1  LIG   0.1381   0.1500 
23    H6       1.4925   -6.2574    0.5568 H       1  LIG   0.1402   0.1500 
24    H7       2.5181   -8.3443    1.1931 H       1  LIG   0.1355   0.1500 
25    H8       4.5101   -9.7091    1.6347 H       1  LIG   0.1346   0.1500 
26    H9       6.7688   -8.7297    1.3891 H       1  LIG   0.1515   0.1500 
27    H10      2.5858   -0.7058   -1.0620 H       1  LIG   0.1356   0.1500 
@<TRIPOS>BOND
1     1     14    ar
2     1     2     ar
3     1     21    1
4     2     3     ar
5     2     22    1
6     3     12    ar
7     3     4     ar
8     4     5     ar
9     4     23    1
10    5     10    ar
11    5     6     ar
12    6     7     ar
13    6     24    1
14    7     8     ar
15    7     25    1
16    8     9     ar
17    8     26    1
18    9     10    ar
19    9     17    1
20    10    11    ar
21    11    12    ar
22    11    16    1
23    12    13    ar
24    13    14    ar
25    13    15    1
26    14    27    1
27    15    18    1
28    16    19    1
29    17    20    1
@<TRIPOS>SUBSTRUCTURE
1   LIG    1    
 
########## Number      : 284
########## Name        : ZINC00001323
########## Description : AM1BCC_CHARGES =   0.0000 ORIGINAL_CHARGES =   0.0000

@<TRIPOS>MOLECULE
ZINC00001323
38    38    1     0     0    
SMALL
USER_CHARGES
****
****
@<TRIPOS>ATOM
1     C1       2.9432   -9.3890   -1.6674 C.3     1  LIG  -0.0922   0.0000 
2     C2       3.0845   -8.1082   -0.8620 C.3     1  LIG  -0.1016   0.0000 
3     C3       4.3558   -7.3509   -1.2337 C.3     1  LIG   0.2230   0.3557 
4     N1       4.4280   -6.1022   -0.4176 N.pl3   1  LIG  -0.8147  -0.8494 
5     C4       5.4376   -6.1622    0.6823 C.3     1  LIG   0.2270   0.3557 
6     C5       6.8646   -5.9181    0.2008 C.3     1  LIG  -0.1087   0.0000 
7     C6       7.8741   -6.2090    1.3011 C.3     1  LIG  -0.0923   0.0000 
8     S1       4.1133   -4.6256   -1.2382 S.o2    1  LIG   1.5087   1.4470 
9     O1       5.3298   -4.1589   -1.8740 O.2     1  LIG  -0.6598  -0.6500 
10    O2       2.8995   -4.7660   -2.0212 O.2     1  LIG  -0.6564  -0.6500 
11    C7       3.7236   -3.5260    0.0899 C.ar    1  LIG  -0.3830  -0.0090 
12    C8       2.5183   -3.6974    0.7710 C.ar    1  LIG  -0.0061  -0.1500 
13    C9       2.1921   -2.8299    1.8136 C.ar    1  LIG  -0.1628  -0.1500 
14    C10      3.0563   -1.7845    2.1656 C.ar    1  LIG  -0.0085  -0.1435 
15    C11      4.2655   -1.6329    1.4730 C.ar    1  LIG  -0.1622  -0.1500 
16    C12      4.5993   -2.4964    0.4286 C.ar    1  LIG  -0.0146  -0.1500 
17    C13      2.7189   -0.8748    3.3088 C.3     1  LIG  -0.0683   0.1435 
18    H1       2.0265   -9.9156   -1.3845 H       1  LIG   0.0378   0.0000 
19    H2       2.8946   -9.1745   -2.7398 H       1  LIG   0.0400   0.0000 
20    H3       3.7894  -10.0601   -1.4888 H       1  LIG   0.0308   0.0000 
21    H4       2.2063   -7.4744   -1.0329 H       1  LIG   0.0578   0.0000 
22    H5       3.0940   -8.3516    0.2072 H       1  LIG   0.0404   0.0000 
23    H6       5.2368   -7.9794   -1.0624 H       1  LIG   0.0495   0.0000 
24    H7       4.3559   -7.1049   -2.3017 H       1  LIG   0.0573   0.0000 
25    H8       5.1682   -5.4414    1.4614 H       1  LIG   0.0475   0.0000 
26    H9       5.3639   -7.1479    1.1594 H       1  LIG   0.0511   0.0000 
27    H10      7.0936   -6.5421   -0.6700 H       1  LIG   0.0508   0.0000 
28    H11      6.9874   -4.8763   -0.1109 H       1  LIG   0.0548   0.0000 
29    H12      8.8902   -6.0135    0.9443 H       1  LIG   0.0399   0.0000 
30    H13      7.6934   -5.5764    2.1760 H       1  LIG   0.0326   0.0000 
31    H14      7.8209   -7.2561    1.6159 H       1  LIG   0.0330   0.0000 
32    H15      1.8338   -4.4996    0.5095 H       1  LIG   0.1486   0.1500 
33    H16      1.2574   -2.9732    2.3503 H       1  LIG   0.1407   0.1500 
34    H17      4.9554   -0.8370    1.7436 H       1  LIG   0.1411   0.1500 
35    H18      5.5396   -2.3529   -0.0950 H       1  LIG   0.1592   0.1500 
36    H19      3.1117   -1.2869    4.2433 H       1  LIG   0.0558   0.0000 
37    H20      3.1454    0.1219    3.1543 H       1  LIG   0.0523   0.0000 
38    H21      1.6348   -0.7521    3.4039 H       1  LIG   0.0515   0.0000 
@<TRIPOS>BOND
1     1     2     1
2     1     18    1
3     1     19    1
4     1     20    1
5     2     3     1
6     2     21    1
7     2     22    1
8     3     4     1
9     3     23    1
10    3     24    1
11    4     5     1
12    4     8     1
13    5     6     1
14    5     25    1
15    5     26    1
16    6     7     1
17    6     27    1
18    6     28    1
19    7     29    1
20    7     30    1
21    7     31    1
22    8     9     2
23    8     10    2
24    8     11    1
25    11    16    ar
26    11    12    ar
27    12    13    ar
28    12    32    1
29    13    14    ar
30    13    33    1
31    14    15    ar
32    14    17    1
33    15    16    ar
34    15    34    1
35    16    35    1
36    17    36    1
37    17    37    1
38    17    38    1
@<TRIPOS>SUBSTRUCTURE
1   LIG    1    
 
########## Number      : 285
########## Name        : ZINC00001328
########## Description : AM1BCC_CHARGES =   1.0001 ORIGINAL_CHARGES =   1.0000

@<TRIPOS>MOLECULE
ZINC00001328
47    50    1     0     0    
SMALL
USER_CHARGES
****
****
@<TRIPOS>ATOM
1     C1       3.2692   -6.9032  -10.1148 C.3     1  LIG  -0.1589   0.1435 
2     C2       3.2898   -5.5172   -9.5461 C.ar    1  LIG   0.4356   0.1665 
3     C3       3.1719   -4.4176  -10.3903 C.ar    1  LIG  -0.2470  -0.1500 
4     C4       3.1943   -3.1425   -9.8317 C.ar    1  LIG  -0.0839  -0.1500 
5     C5       3.3377   -2.9872   -8.4530 C.ar    1  LIG  -0.2369  -0.1435 
6     C6       3.4422   -4.1463   -7.6931 C.ar    1  LIG   0.4156   0.1600 
7     N1       3.4234   -5.3989   -8.2038 N.ar    1  LIG  -0.6541  -0.6200 
8     C7       3.3444   -1.6283   -7.8142 C.3     1  LIG  -0.0428   0.1435 
9     C8       1.9322   -1.1760   -7.4460 C.3     1  LIG   0.0300   0.2556 
10    N2       1.9249    0.1447   -6.8341 N.pl3   1  LIG  -0.0256   0.0476 
11    C9       2.0889    0.3948   -5.4814 C.ar    1  LIG  -0.0417  -0.1516 
12    C10      2.3151   -0.4777   -4.4038 C.ar    1  LIG  -0.1137  -0.1500 
13    C11      2.4442    0.0692   -3.1240 C.ar    1  LIG  -0.0936  -0.1500 
14    C12      2.3508    1.4437   -2.9283 C.ar    1  LIG   0.0181   0.1770 
15    C13      2.1272    2.3137   -4.0004 C.ar    1  LIG  -0.0985  -0.1500 
16    C14      1.9940    1.7813   -5.3000 C.ar    1  LIG  -0.0555   0.0000 
17    C15      1.7706    2.3544   -6.5804 C.2     1  LIG  -0.2344  -0.1810 
18    C16      1.7444    1.3275   -7.5006 C.2     1  LIG  -0.0546  -0.3316 
19    C17      1.5238    1.5067   -8.9641 C.3     1  LIG  -0.0423   0.1800 
20    C18      1.7468    2.9779   -9.3540 C.3     1  LIG   0.1185   0.5030 
21    C19      1.6055    3.7747   -6.9832 C.3     1  LIG   0.2205   0.6840 
22    C20      1.0238    5.3297   -8.8416 C.3     1  LIG   0.0849   0.5030 
23    Cl1      2.5145    2.0886   -1.3382 Cl      1  LIG  -0.0582  -0.1770 
24    H1       4.0957   -7.0354  -10.8199 H       1  LIG   0.0594   0.0000 
25    H2       3.3746   -7.6515   -9.3226 H       1  LIG   0.0746   0.0000 
26    H3       2.3221   -7.0860  -10.6319 H       1  LIG   0.0567   0.0000 
27    H4       3.0630   -4.5422  -11.4629 H       1  LIG   0.1512   0.1500 
28    H5       3.0988   -2.2744  -10.4786 H       1  LIG   0.1274   0.1500 
29    H6       3.5462   -4.1022   -6.6129 H       1  LIG   0.0226   0.1500 
30    H7       3.9863   -1.6461   -6.9239 H       1  LIG   0.0720   0.0000 
31    H8       3.8123   -0.9060   -8.4956 H       1  LIG   0.0512   0.0000 
32    H9       1.2833   -1.1406   -8.3290 H       1  LIG   0.0641   0.0000 
33    H10      1.4582   -1.8723   -6.7443 H       1  LIG   0.0869   0.0000 
34    H11      2.3917   -1.5506   -4.5489 H       1  LIG   0.1540   0.1500 
35    H12      2.6195   -0.5982   -2.2834 H       1  LIG   0.1666   0.1500 
36    H13      2.0569    3.3860   -3.8397 H       1  LIG   0.1495   0.1500 
37    H14      2.2009    0.8736   -9.5471 H       1  LIG   0.1052   0.0000 
38    H15      0.4960    1.2137   -9.2095 H       1  LIG   0.0852   0.0000 
39    H16      2.8073    3.2549   -9.3205 H       1  LIG   0.1091   0.0000 
40    H17      1.3522    3.1709  -10.3571 H       1  LIG   0.1008   0.0000 
41    H18      0.9202    4.3003   -6.3102 H       1  LIG   0.1034   0.0000 
42    H19      2.5760    4.2837   -6.9950 H       1  LIG   0.1007   0.0000 
43    H20      0.5344    5.3763   -9.8179 H       1  LIG   0.1017   0.0000 
44    H21      0.4628    5.9208   -8.1132 H       1  LIG   0.1066   0.0000 
45    H22      2.0618    5.6664   -8.9083 H       1  LIG   0.1054   0.0000 
46    N3       1.0088    3.8932   -8.3856 N.4     1  LIG  -0.6883  -0.9590 
47    H23      0.0084    3.6276   -8.3800 H       1  LIG   0.4526   0.4500 
@<TRIPOS>BOND
1     1     2     1
2     1     24    1
3     1     25    1
4     1     26    1
5     2     7     ar
6     2     3     ar
7     3     4     ar
8     3     27    1
9     4     5     ar
10    4     28    1
11    5     6     ar
12    5     8     1
13    6     7     ar
14    6     29    1
15    8     9     1
16    8     30    1
17    8     31    1
18    9     10    1
19    9     32    1
20    9     33    1
21    10    18    1
22    10    11    1
23    11    16    ar
24    11    12    ar
25    12    13    ar
26    12    34    1
27    13    14    ar
28    13    35    1
29    14    15    ar
30    14    23    1
31    15    16    ar
32    15    36    1
33    16    17    1
34    17    21    1
35    17    18    2
36    18    19    1
37    19    20    1
38    19    37    1
39    19    38    1
40    20    39    1
41    20    40    1
42    20    46    1
43    21    41    1
44    21    42    1
45    21    46    1
46    22    43    1
47    22    44    1
48    22    45    1
49    22    46    1
50    46    47    1
@<TRIPOS>SUBSTRUCTURE
1   LIG    1    
 
########## Number      : 286
########## Name        : ZINC00001336
########## Description : AM1BCC_CHARGES =   0.0002 ORIGINAL_CHARGES =   0.0000

@<TRIPOS>MOLECULE
ZINC00001336
28    30    1     0     0    
SMALL
USER_CHARGES
****
****
@<TRIPOS>ATOM
1     C1       8.5954   -6.3795    0.4779 C.3     1  LIG  -0.0505   0.1435 
2     C2       7.1262   -6.6807    0.4659 C.ar    1  LIG  -0.1072  -0.1435 
3     C3       6.6749   -8.0017    0.5154 C.ar    1  LIG  -0.0824  -0.1500 
4     C4       5.3095   -8.2807    0.4728 C.ar    1  LIG  -0.2132  -0.1500 
5     C5       4.3779   -7.2418    0.3691 C.ar    1  LIG   0.1441   0.0825 
6     C6       4.8100   -5.9090    0.3027 C.ar    1  LIG  -0.0077  -0.0230 
7     C7       6.1912   -5.6414    0.3470 C.ar    1  LIG  -0.0832  -0.1500 
8     N1       3.9066   -4.8128    0.1896 N.pl3   1  LIG   0.3986   0.8590 
9     N2       2.5637   -4.9705    0.1376 N.2     1  LIG  -0.2052  -0.7068 
10    C8       2.0993   -3.7183    0.0349 C.ar    1  LIG  -0.1250   0.2888 
11    C9       0.7708   -3.2633   -0.0562 C.ar    1  LIG  -0.0725  -0.1500 
12    C10      0.6404   -1.8657   -0.1529 C.ar    1  LIG  -0.1337  -0.1500 
13    C11      1.7491   -0.9785   -0.1591 C.ar    1  LIG  -0.1236  -0.1500 
14    C12      3.0847   -1.4115   -0.0691 C.ar    1  LIG  -0.0841  -0.1500 
15    C13      3.2381   -2.8070    0.0285 C.ar    1  LIG  -0.1052   0.2888 
16    N3       4.3590   -3.5344    0.1277 N.2     1  LIG  -0.2597  -0.7068 
17    O1       3.0504   -7.5690    0.3319 O.3     1  LIG  -0.4635  -0.5325 
18    H1       2.9539   -8.5344    0.3894 H       1  LIG   0.4212   0.4500 
19    H2       9.1493   -7.1499    1.0248 H       1  LIG   0.0440   0.0000 
20    H3       8.9759   -6.3319   -0.5470 H       1  LIG   0.0492   0.0000 
21    H4       8.7935   -5.4241    0.9752 H       1  LIG   0.0486   0.0000 
22    H5       7.3831   -8.8233    0.5886 H       1  LIG   0.1404   0.1500 
23    H6       4.9839   -9.3168    0.5186 H       1  LIG   0.1398   0.1500 
24    H7       6.5668   -4.6213    0.2904 H       1  LIG   0.1676   0.1500 
25    H8      -0.0842   -3.9270   -0.0527 H       1  LIG   0.1484   0.1500 
26    H9      -0.3603   -1.4415   -0.2268 H       1  LIG   0.1343   0.1500 
27    H10      1.5539    0.0904   -0.2375 H       1  LIG   0.1340   0.1500 
28    H11      3.9195   -0.7226   -0.0751 H       1  LIG   0.1467   0.1500 
@<TRIPOS>BOND
1     1     2     1
2     1     19    1
3     1     20    1
4     1     21    1
5     2     7     ar
6     2     3     ar
7     3     4     ar
8     3     22    1
9     4     5     ar
10    4     23    1
11    5     6     ar
12    5     17    1
13    6     7     ar
14    6     8     1
15    7     24    1
16    8     16    1
17    8     9     1
18    9     10    2
19    10    15    ar
20    10    11    ar
21    11    12    ar
22    11    25    1
23    12    13    ar
24    12    26    1
25    13    14    ar
26    13    27    1
27    14    15    ar
28    14    28    1
29    15    16    2
30    17    18    1
@<TRIPOS>SUBSTRUCTURE
1   LIG    1    
 
########## Number      : 287
########## Name        : ZINC00001337
########## Description : AM1BCC_CHARGES =  -1.0001 ORIGINAL_CHARGES =  -1.0000

@<TRIPOS>MOLECULE
ZINC00001337
31    33    1     0     0    
SMALL
USER_CHARGES
****
****
@<TRIPOS>ATOM
1     C1      -2.4138    2.1473    0.9637 C.3     1  LIG  -0.1075   0.0000 
2     C2      -1.5587    3.1566    1.7184 C.3     1  LIG   0.2282   0.3691 
3     N1      -1.0700    4.3060    0.9287 N.pl3   1  LIG  -0.5368  -0.5691 
4     C3      -1.2760    4.4756   -0.4308 C.2     1  LIG   0.0676  -0.0500 
5     C4      -0.8708    5.5029   -1.1867 C.2     1  LIG  -0.2744  -0.2356 
6     C5      -0.1195    6.5922   -0.5198 C.2     1  LIG   0.5965   0.4694 
7     O1       0.2373    7.5959   -1.1250 O.2     1  LIG  -0.5530  -0.5700 
8     C6       0.1718    6.4322    0.9275 C.ar    1  LIG  -0.1902   0.0862 
9     C7      -0.3113    5.2898    1.6288 C.ar    1  LIG   0.1758   0.1000 
10    C8      -0.0093    5.1946    3.0043 C.ar    1  LIG  -0.1685  -0.1500 
11    C9       0.7412    6.1876    3.6153 C.ar    1  LIG  -0.1142  -0.1435 
12    C10      1.1935    7.2818    2.9034 C.ar    1  LIG   0.0365   0.0825 
13    C11      0.9205    7.4362    1.5630 C.ar    1  LIG  -0.0605  -0.1500 
14    O2       1.9035    8.1753    3.6631 O.3     1  LIG  -0.3276  -0.3625 
15    C12      2.1571    7.4541    4.8919 C.3     1  LIG   0.1230   0.2800 
16    C13      1.1261    6.3341    5.0366 C.3     1  LIG  -0.0525   0.1435 
17    C14     -1.1715    5.5075   -2.6893 C.2     1  LIG   0.9298   1.0500 
18    O3      -0.2291    5.9074   -3.4312 O.co2   1  LIG  -0.7934  -0.9000 
19    H1      -2.7454    1.3570    1.6455 H       1  LIG   0.0291   0.0000 
20    H2      -3.3081    2.6163    0.5407 H       1  LIG   0.0591   0.0000 
21    H3      -1.8503    1.6685    0.1563 H       1  LIG   0.0538   0.0000 
22    H4      -2.1679    3.5258    2.5532 H       1  LIG   0.0302   0.0000 
23    H5      -0.7010    2.6132    2.1345 H       1  LIG   0.0278   0.0000 
24    H6      -1.8201    3.6648   -0.9002 H       1  LIG   0.1748   0.1500 
25    H7      -0.3487    4.3645    3.6148 H       1  LIG   0.1264   0.1500 
26    H8       1.2832    8.3078    1.0285 H       1  LIG   0.1722   0.1500 
27    H9       3.1756    7.0488    4.8369 H       1  LIG   0.0449   0.0000 
28    H10      2.1164    8.1507    5.7357 H       1  LIG   0.0444   0.0000 
29    H11      0.2670    6.6623    5.6303 H       1  LIG   0.0532   0.0000 
30    H12      1.5627    5.4324    5.4734 H       1  LIG   0.0534   0.0000 
31    O4      -2.3234    5.0996   -3.0184 O.co2   1  LIG  -0.8482  -0.9000 
@<TRIPOS>BOND
1     1     2     1
2     1     19    1
3     1     20    1
4     1     21    1
5     2     3     1
6     2     22    1
7     2     23    1
8     3     9     1
9     3     4     1
10    4     5     2
11    4     24    1
12    5     6     1
13    5     17    1
14    6     7     2
15    6     8     1
16    8     13    ar
17    8     9     ar
18    9     10    ar
19    10    11    ar
20    10    25    1
21    11    16    1
22    11    12    ar
23    12    13    ar
24    12    14    1
25    13    26    1
26    14    15    1
27    15    16    1
28    15    27    1
29    15    28    1
30    16    29    1
31    16    30    1
32    17    18    2
33    17    31    1
@<TRIPOS>SUBSTRUCTURE
1   LIG    1    
 
########## Number      : 288
########## Name        : ZINC00001340
########## Description : AM1BCC_CHARGES =   0.0000 ORIGINAL_CHARGES =  -0.0000

@<TRIPOS>MOLECULE
ZINC00001340
23    22    1     0     0    
SMALL
USER_CHARGES
****
****
@<TRIPOS>ATOM
1     C1       6.3305   -7.8166   -1.4063 C.3     1  LIG  -0.0948   0.0000 
2     C2       5.3561   -8.3634   -0.3722 C.3     1  LIG  -0.0409   0.1382 
3     C3       3.9214   -8.1001   -0.7484 C.2     1  LIG  -0.1763  -0.1238 
4     C4       3.0721   -9.0758   -1.1181 C.2     1  LIG  -0.1253  -0.2882 
5     C5       1.6117   -8.9594   -1.4205 C.3     1  LIG  -0.0797   0.1382 
6     C6       3.4611   -6.6866   -0.6163 C.2     1  LIG   0.6792   0.6156 
7     O1       3.5130   -6.1121    0.4656 O.2     1  LIG  -0.5156  -0.5700 
8     N1       3.0656   -6.1373   -1.8294 N.am    1  LIG  -0.6125  -0.4900 
9     C7       2.5749   -4.8456   -1.9987 C.2     1  LIG   0.7596   0.6900 
10    O2       2.4240   -4.0129   -1.1086 O.2     1  LIG  -0.5795  -0.5700 
11    N2       2.2616   -4.5824   -3.3170 N.am    1  LIG  -0.6691  -0.8000 
12    H1       3.1244   -6.7160   -2.6604 H       1  LIG   0.3158   0.3700 
13    H2       1.8926   -3.6762   -3.5830 H       1  LIG   0.3216   0.3700 
14    H3       2.3861   -5.2670   -4.0531 H       1  LIG   0.2944   0.3700 
15    H4       7.3593   -8.0518   -1.1153 H       1  LIG   0.0426   0.0000 
16    H5       6.1489   -8.2569   -2.3926 H       1  LIG   0.0309   0.0000 
17    H6       6.2490   -6.7284   -1.4975 H       1  LIG   0.0425   0.0000 
18    H7       5.5316   -9.4404   -0.2594 H       1  LIG   0.0491   0.0000 
19    H8       5.5707   -7.9166    0.6060 H       1  LIG   0.0734   0.0000 
20    H9       3.4622  -10.0902   -1.1888 H       1  LIG   0.1311   0.1500 
21    H10      1.0613   -9.7184   -0.8550 H       1  LIG   0.0548   0.0000 
22    H11      1.1888   -7.9878   -1.1536 H       1  LIG   0.0537   0.0000 
23    H12      1.4367   -9.1355   -2.4861 H       1  LIG   0.0450   0.0000 
@<TRIPOS>BOND
1     1     2     1
2     1     15    1
3     1     16    1
4     1     17    1
5     2     3     1
6     2     18    1
7     2     19    1
8     3     4     2
9     3     6     1
10    4     5     1
11    4     20    1
12    5     21    1
13    5     22    1
14    5     23    1
15    6     7     2
16    6     8     am
17    8     9     am
18    8     12    1
19    9     10    2
20    9     11    am
21    11    13    1
22    11    14    1
@<TRIPOS>SUBSTRUCTURE
1   LIG    1    
 
########## Number      : 289
########## Name        : ZINC00001345
########## Description : AM1BCC_CHARGES =   0.9999 ORIGINAL_CHARGES =   1.0000

@<TRIPOS>MOLECULE
ZINC00001345
38    41    1     0     0    
SMALL
USER_CHARGES
****
****
@<TRIPOS>ATOM
1     C1       1.7148   -5.0548    1.5962 C.3     1  LIG  -0.0538   0.1435 
2     C2       3.0530   -5.5372    2.1005 C.ar    1  LIG  -0.1405  -0.1435 
3     C3       3.4267   -6.9059    2.0086 C.ar    1  LIG   0.0564   0.0000 
4     C4       2.5726   -7.8589    1.4224 C.ar    1  LIG  -0.1182  -0.1500 
5     C5       2.9481   -9.1894    1.3248 C.ar    1  LIG  -0.0837   0.2110 
6     N1       4.1396   -9.5911    1.7902 N.ar    1  LIG  -0.0048  -0.2100 
7     C6       4.9880   -8.7116    2.3588 C.ar    1  LIG   0.0414   0.2110 
8     C7       4.6764   -7.3466    2.5062 C.ar    1  LIG  -0.1311   0.0000 
9     C8       5.5791   -6.4232    3.1294 C.ar    1  LIG   0.0371  -0.1435 
10    C9       5.2424   -5.0384    3.1435 C.ar    1  LIG  -0.0603   0.0000 
11    C10      3.9953   -4.6493    2.6543 C.ar    1  LIG   0.0936  -0.1516 
12    N2       3.9007   -3.2857    2.8299 N.pl3   1  LIG  -0.1643   0.0332 
13    C11      5.0495   -2.7654    3.3620 C.ar    1  LIG  -0.0476  -0.1516 
14    C12      5.9252   -3.8311    3.5618 C.ar    1  LIG  -0.0476   0.0000 
15    C13      7.2090   -3.5308    4.0770 C.ar    1  LIG  -0.1641  -0.1500 
16    C14      7.5361   -2.2041    4.3841 C.ar    1  LIG   0.1278   0.0825 
17    C15      6.6315   -1.1699    4.1885 C.ar    1  LIG  -0.1080  -0.1500 
18    C16      5.3658   -1.4350    3.6672 C.ar    1  LIG  -0.0989  -0.1500 
19    O1       8.7692   -1.8880    4.8859 O.3     1  LIG  -0.4782  -0.5325 
20    C17      6.8737   -6.9254    3.7287 C.3     1  LIG  -0.0817   0.1435 
21    C18      4.5420  -11.0005    1.6718 C.3     1  LIG  -0.0216   0.4880 
22    H1       3.0981   -2.7286    2.5748 H       1  LIG   0.3240   0.2700 
23    H2       9.2903   -2.7046    4.9693 H       1  LIG   0.4282   0.4500 
24    H3       0.9033   -5.5835    2.1071 H       1  LIG   0.0602   0.0000 
25    H4       1.5610   -3.9875    1.7759 H       1  LIG   0.0511   0.0000 
26    H5       1.6365   -5.2175    0.5163 H       1  LIG   0.0606   0.0000 
27    H6       1.5996   -7.5837    1.0237 H       1  LIG   0.1849   0.1500 
28    H7       2.3075   -9.9372    0.8723 H       1  LIG   0.1951   0.1500 
29    H8       5.9286   -9.1433    2.6788 H       1  LIG   0.1922   0.1500 
30    H9       7.9486   -4.3096    4.2245 H       1  LIG   0.1456   0.1500 
31    H10      6.9063   -0.1472    4.4331 H       1  LIG   0.1745   0.1500 
32    H11      4.6543   -0.6328    3.5002 H       1  LIG   0.1587   0.1500 
33    H12      6.7435   -7.8948    4.2193 H       1  LIG   0.0508   0.0000 
34    H13      7.6422   -7.0060    2.9545 H       1  LIG   0.0733   0.0000 
35    H14      7.2280   -6.2661    4.5224 H       1  LIG   0.0775   0.0000 
36    H15      5.3472  -11.0542    0.9344 H       1  LIG   0.0884   0.0000 
37    H16      4.8845  -11.3418    2.6525 H       1  LIG   0.0875   0.0000 
38    H17      3.6931  -11.6083    1.3499 H       1  LIG   0.0954   0.0000 
@<TRIPOS>BOND
1     1     2     1
2     1     24    1
3     1     25    1
4     1     26    1
5     2     11    ar
6     2     3     ar
7     3     8     ar
8     3     4     ar
9     4     5     ar
10    4     27    1
11    5     6     ar
12    5     28    1
13    6     7     ar
14    6     21    1
15    7     8     ar
16    7     29    1
17    8     9     ar
18    9     10    ar
19    9     20    1
20    10    14    1
21    10    11    ar
22    11    12    1
23    12    13    1
24    12    22    1
25    13    18    ar
26    13    14    ar
27    14    15    ar
28    15    16    ar
29    15    30    1
30    16    17    ar
31    16    19    1
32    17    18    ar
33    17    31    1
34    18    32    1
35    19    23    1
36    20    33    1
37    20    34    1
38    20    35    1
39    21    36    1
40    21    37    1
41    21    38    1
@<TRIPOS>SUBSTRUCTURE
1   LIG    1    
 
########## Number      : 290
########## Name        : ZINC00001350
########## Description : AM1BCC_CHARGES =   0.0000 ORIGINAL_CHARGES =   0.0000

@<TRIPOS>MOLECULE
ZINC00001350
25    24    1     0     0    
SMALL
USER_CHARGES
****
****
@<TRIPOS>ATOM
1     C1       6.1951   -9.4286    0.7854 C.3     1  LIG  -0.0921   0.0000 
2     C2       6.0090   -9.8198   -0.6778 C.3     1  LIG  -0.0788   0.0000 
3     C3       4.5739   -9.6084   -1.2487 C.3     1  LIG   0.1928   0.2800 
4     C4       4.6359  -10.0049   -2.7342 C.3     1  LIG  -0.1203   0.0000 
5     C5       3.5652  -10.4595   -0.4388 C.3     1  LIG  -0.0946   0.0000 
6     C6       2.1235  -10.4692   -0.9298 C.3     1  LIG  -0.1012   0.0000 
7     O1       4.3123   -8.1854   -1.0609 O.3     1  LIG  -0.4562  -0.4300 
8     C7       3.3794   -7.4762   -1.7431 C.2     1  LIG   0.7482   0.7800 
9     O2       2.6325   -7.8977   -2.6158 O.2     1  LIG  -0.5975  -0.5700 
10    N1       3.3819   -6.1757   -1.3139 N.am    1  LIG  -0.6532  -0.8000 
11    H1       2.7478   -5.4935   -1.7126 H       1  LIG   0.3262   0.3700 
12    H2       4.0177   -5.8666   -0.5881 H       1  LIG   0.3196   0.3700 
13    H3       7.2506   -9.5215    1.0620 H       1  LIG   0.0327   0.0000 
14    H4       5.8930   -8.3932    0.9687 H       1  LIG   0.0466   0.0000 
15    H5       5.6256  -10.0822    1.4521 H       1  LIG   0.0328   0.0000 
16    H6       6.7130   -9.2121   -1.2623 H       1  LIG   0.0516   0.0000 
17    H7       6.3125  -10.8669   -0.8016 H       1  LIG   0.0481   0.0000 
18    H8       3.6660   -9.9468   -3.2331 H       1  LIG   0.0814   0.0000 
19    H9       5.3073   -9.3368   -3.2857 H       1  LIG   0.0455   0.0000 
20    H10      4.9958  -11.0328   -2.8535 H       1  LIG   0.0401   0.0000 
21    H11      3.9159  -11.4989   -0.4091 H       1  LIG   0.0456   0.0000 
22    H12      3.5340  -10.0995    0.5965 H       1  LIG   0.0535   0.0000 
23    H13      1.5305  -11.1521   -0.3115 H       1  LIG   0.0305   0.0000 
24    H14      1.6630   -9.4820   -0.8451 H       1  LIG   0.0641   0.0000 
25    H15      2.0431  -10.8150   -1.9634 H       1  LIG   0.0346   0.0000 
@<TRIPOS>BOND
1     1     2     1
2     1     13    1
3     1     14    1
4     1     15    1
5     2     3     1
6     2     16    1
7     2     17    1
8     3     4     1
9     3     5     1
10    3     7     1
11    4     18    1
12    4     19    1
13    4     20    1
14    5     6     1
15    5     21    1
16    5     22    1
17    6     23    1
18    6     24    1
19    6     25    1
20    7     8     1
21    8     9     2
22    8     10    am
23    10    11    1
24    10    12    1
@<TRIPOS>SUBSTRUCTURE
1   LIG    1    
 
########## Number      : 291
########## Name        : ZINC00001358
########## Description : AM1BCC_CHARGES =  -0.0004 ORIGINAL_CHARGES =   0.0000

@<TRIPOS>MOLECULE
ZINC00001358
48    50    1     0     0    
SMALL
USER_CHARGES
****
****
@<TRIPOS>ATOM
1     C1      -3.3351    4.5302    2.2774 C.1     1  LIG  -0.1178  -0.1770 
2     C2      -2.2124    4.4222    1.8629 C.1     1  LIG  -0.1374  -0.2000 
3     C3      -0.8095    4.2791    1.3586 C.3     1  LIG   0.3835   0.7670 
4     C4      -0.5964    5.1985    0.1345 C.ar    1  LIG  -0.1231  -0.1435 
5     C5      -1.1006    6.5158    0.1425 C.ar    1  LIG  -0.0992  -0.1500 
6     C6      -0.8963    7.3809   -0.9361 C.ar    1  LIG  -0.1446  -0.1500 
7     C7      -0.1665    6.9573   -2.0412 C.ar    1  LIG  -0.1135  -0.1500 
8     C8       0.3695    5.6739   -2.0616 C.ar    1  LIG  -0.1414  -0.1500 
9     C9       0.1652    4.8082   -0.9827 C.ar    1  LIG  -0.0744  -0.1500 
10    C10     -0.6190    2.7643    1.1260 C.ar    1  LIG  -0.0957  -0.1435 
11    C11      0.1231    1.9583    2.0069 C.ar    1  LIG  -0.0938  -0.1500 
12    C12      0.2451    0.5810    1.7982 C.ar    1  LIG  -0.1319  -0.1500 
13    C13     -0.3899   -0.0241    0.7179 C.ar    1  LIG  -0.1222  -0.1500 
14    C14     -1.1590    0.7447   -0.1490 C.ar    1  LIG  -0.1346  -0.1500 
15    C15     -1.2813    2.1206    0.0586 C.ar    1  LIG  -0.1119  -0.1500 
16    O1       0.0277    4.7931    2.4440 O.3     1  LIG  -0.4389  -0.4300 
17    C16      1.3840    4.8974    2.3458 C.2     1  LIG   0.7340   0.7800 
18    O2       2.0549    4.5250    1.3888 O.2     1  LIG  -0.5745  -0.5700 
19    N1       1.9534    5.4643    3.4678 N.am    1  LIG  -0.5190  -0.7301 
20    C17      1.2348    5.9003    4.6643 C.3     1  LIG   0.0949   0.3001 
21    C18      0.9722    4.7120    5.5981 C.3     1  LIG  -0.1065   0.0000 
22    C19      0.2835    5.1509    6.8877 C.3     1  LIG  -0.0735   0.0000 
23    C20      1.0639    6.2537    7.5967 C.3     1  LIG  -0.0805   0.0000 
24    C21      1.3292    7.4382    6.6723 C.3     1  LIG  -0.0756   0.0000 
25    C22      2.0218    7.0013    5.3842 C.3     1  LIG  -0.0820   0.0000 
26    H1       2.9661    5.5309    3.4716 H       1  LIG   0.3140   0.3700 
27    H2      -4.3301    4.6252    2.6449 H       1  LIG   0.1676   0.1770 
28    H3      -1.6556    6.8922    0.9990 H       1  LIG   0.1386   0.1500 
29    H4      -1.3024    8.3880   -0.9067 H       1  LIG   0.1311   0.1500 
30    H5      -0.0042    7.6295   -2.8784 H       1  LIG   0.1302   0.1500 
31    H6       0.9578    5.3452   -2.9138 H       1  LIG   0.1342   0.1500 
32    H7       0.6330    3.8282   -1.0287 H       1  LIG   0.1580   0.1500 
33    H8       0.6120    2.3802    2.8802 H       1  LIG   0.1360   0.1500 
34    H9       0.8315   -0.0197    2.4879 H       1  LIG   0.1321   0.1500 
35    H10     -0.2953   -1.0943    0.5597 H       1  LIG   0.1310   0.1500 
36    H11     -1.6706    0.2751   -0.9842 H       1  LIG   0.1323   0.1500 
37    H12     -1.9071    2.6909   -0.6251 H       1  LIG   0.1408   0.1500 
38    H13      0.2710    6.3161    4.3439 H       1  LIG   0.0807   0.0000 
39    H14      0.3520    3.9614    5.0939 H       1  LIG   0.0554   0.0000 
40    H15      1.9203    4.2150    5.8423 H       1  LIG   0.0404   0.0000 
41    H16     -0.7271    5.5097    6.6566 H       1  LIG   0.0455   0.0000 
42    H17      0.1714    4.2904    7.5568 H       1  LIG   0.0435   0.0000 
43    H18      0.5073    6.5912    8.4782 H       1  LIG   0.0428   0.0000 
44    H19      2.0188    5.8509    7.9564 H       1  LIG   0.0405   0.0000 
45    H20      0.3799    7.9302    6.4272 H       1  LIG   0.0442   0.0000 
46    H21      1.9484    8.1789    7.1908 H       1  LIG   0.0440   0.0000 
47    H22      3.0336    6.6456    5.6193 H       1  LIG   0.0413   0.0000 
48    H23      2.1442    7.8669    4.7218 H       1  LIG   0.0550   0.0000 
@<TRIPOS>BOND
1     1     2     3
2     1     27    1
3     2     3     1
4     3     4     1
5     3     10    1
6     3     16    1
7     4     9     ar
8     4     5     ar
9     5     6     ar
10    5     28    1
11    6     7     ar
12    6     29    1
13    7     8     ar
14    7     30    1
15    8     9     ar
16    8     31    1
17    9     32    1
18    10    15    ar
19    10    11    ar
20    11    12    ar
21    11    33    1
22    12    13    ar
23    12    34    1
24    13    14    ar
25    13    35    1
26    14    15    ar
27    14    36    1
28    15    37    1
29    16    17    1
30    17    18    2
31    17    19    am
32    19    20    1
33    19    26    1
34    20    25    1
35    20    21    1
36    20    38    1
37    21    22    1
38    21    39    1
39    21    40    1
40    22    23    1
41    22    41    1
42    22    42    1
43    23    24    1
44    23    43    1
45    23    44    1
46    24    25    1
47    24    45    1
48    24    46    1
49    25    47    1
50    25    48    1
@<TRIPOS>SUBSTRUCTURE
1   LIG    1    
 
########## Number      : 292
########## Name        : ZINC00001362
########## Description : AM1BCC_CHARGES =  -0.0000 ORIGINAL_CHARGES =   0.0000

@<TRIPOS>MOLECULE
ZINC00001362
48    51    1     0     0    
SMALL
USER_CHARGES
****
****
@<TRIPOS>ATOM
1     C1       2.8719   -3.0395   -4.5407 C.3     1  LIG  -0.0973   0.0000 
2     C2       1.9892   -1.9649   -5.2311 C.3     1  LIG  -0.0773   0.0000 
3     C3       0.9325   -1.4981   -4.2162 C.3     1  LIG  -0.0625   0.0000 
4     C4       1.5568   -0.6979   -3.0533 C.3     1  LIG  -0.0722   0.0000 
5     C5       2.4856    0.4588   -3.5320 C.3     1  LIG  -0.0084   0.1435 
6     C6       3.2109    1.1487   -2.3795 C.ar    1  LIG  -0.0998  -0.1435 
7     C7       2.6109    1.2988   -1.1175 C.ar    1  LIG  -0.0949  -0.1500 
8     C8       3.2505    1.9798   -0.0748 C.ar    1  LIG  -0.2048  -0.1500 
9     C9       4.5053    2.5460   -0.2743 C.ar    1  LIG   0.1233   0.0825 
10    C10      5.1046    2.4312   -1.5299 C.ar    1  LIG  -0.1608  -0.1500 
11    C11      4.4680    1.7552   -2.5874 C.ar    1  LIG  -0.0399  -0.1435 
12    C12      5.2026    1.6689   -3.9043 C.3     1  LIG  -0.0371   0.1435 
13    C13      4.3605    1.1239   -5.0547 C.3     1  LIG  -0.0740   0.0000 
14    C14      3.5224   -0.0631   -4.5600 C.3     1  LIG  -0.0477   0.0000 
15    C15      2.7564   -0.7308   -5.7038 C.3     1  LIG  -0.0624   0.0000 
16    C16      3.5230   -1.2296   -6.9332 C.3     1  LIG  -0.0720   0.0000 
17    C17      2.5493   -2.2639   -7.5732 C.3     1  LIG   0.1049   0.2800 
18    C18      1.4058   -2.4737   -6.5603 C.3     1  LIG   0.1140   0.2800 
19    O1       1.0188   -3.8402   -6.4939 O.3     1  LIG  -0.5961  -0.6800 
20    O2       3.2540   -3.4787   -7.7903 O.3     1  LIG  -0.6011  -0.6800 
21    O3       5.2364    3.2318    0.6576 O.3     1  LIG  -0.3284  -0.3625 
22    C19      4.6621    3.3631    1.9527 C.3     1  LIG   0.1142   0.2800 
23    H1       1.8258   -4.3796   -6.4353 H       1  LIG   0.4115   0.4000 
24    H2       2.6819   -4.0450   -8.3370 H       1  LIG   0.4087   0.4000 
25    H3       3.6589   -3.4173   -5.1999 H       1  LIG   0.0483   0.0000 
26    H4       3.3708   -2.6738   -3.6397 H       1  LIG   0.0469   0.0000 
27    H5       2.2658   -3.8984   -4.2293 H       1  LIG   0.0385   0.0000 
28    H6       0.1954   -0.8549   -4.7149 H       1  LIG   0.0398   0.0000 
29    H7       0.3734   -2.3527   -3.8163 H       1  LIG   0.0504   0.0000 
30    H8       0.7266   -0.2944   -2.4613 H       1  LIG   0.0390   0.0000 
31    H9       2.1067   -1.3739   -2.3876 H       1  LIG   0.0486   0.0000 
32    H10      1.8062    1.1845   -4.0168 H       1  LIG   0.0546   0.0000 
33    H11      1.6227    0.8960   -0.9146 H       1  LIG   0.1322   0.1500 
34    H12      2.7326    2.0514    0.8765 H       1  LIG   0.1359   0.1500 
35    H13      6.0848    2.8766   -1.6932 H       1  LIG   0.1474   0.1500 
36    H14      5.5823    2.6591   -4.1838 H       1  LIG   0.0529   0.0000 
37    H15      6.0706    1.0125   -3.7599 H       1  LIG   0.0531   0.0000 
38    H16      3.7033    1.9135   -5.4415 H       1  LIG   0.0444   0.0000 
39    H17      5.0263    0.8324   -5.8745 H       1  LIG   0.0454   0.0000 
40    H18      4.2417   -0.7615   -4.1035 H       1  LIG   0.0635   0.0000 
41    H19      2.0911    0.0604   -6.1002 H       1  LIG   0.0466   0.0000 
42    H20      3.7310   -0.4103   -7.6298 H       1  LIG   0.0506   0.0000 
43    H21      4.4796   -1.6885   -6.6594 H       1  LIG   0.0701   0.0000 
44    H22      2.1883   -1.8748   -8.5364 H       1  LIG   0.0423   0.0000 
45    H23      0.5093   -1.8801   -6.7978 H       1  LIG   0.0792   0.0000 
46    H24      5.3668    3.9230    2.5750 H       1  LIG   0.0653   0.0000 
47    H25      3.7275    3.9324    1.9138 H       1  LIG   0.0325   0.0000 
48    H26      4.5112    2.3840    2.4192 H       1  LIG   0.0326   0.0000 
@<TRIPOS>BOND
1     1     2     1
2     1     25    1
3     1     26    1
4     1     27    1
5     2     15    1
6     2     18    1
7     2     3     1
8     3     4     1
9     3     28    1
10    3     29    1
11    4     5     1
12    4     30    1
13    4     31    1
14    5     14    1
15    5     6     1
16    5     32    1
17    6     11    ar
18    6     7     ar
19    7     8     ar
20    7     33    1
21    8     9     ar
22    8     34    1
23    9     10    ar
24    9     21    1
25    10    11    ar
26    10    35    1
27    11    12    1
28    12    13    1
29    12    36    1
30    12    37    1
31    13    14    1
32    13    38    1
33    13    39    1
34    14    15    1
35    14    40    1
36    15    16    1
37    15    41    1
38    16    17    1
39    16    42    1
40    16    43    1
41    17    18    1
42    17    20    1
43    17    44    1
44    18    19    1
45    18    45    1
46    19    23    1
47    20    24    1
48    21    22    1
49    22    46    1
50    22    47    1
51    22    48    1
@<TRIPOS>SUBSTRUCTURE
1   LIG    1    
 
########## Number      : 293
########## Name        : ZINC00001364
########## Description : AM1BCC_CHARGES =   0.0001 ORIGINAL_CHARGES =   0.0000

@<TRIPOS>MOLECULE
ZINC00001364
38    41    1     0     0    
SMALL
USER_CHARGES
****
****
@<TRIPOS>ATOM
1     C1      -6.6908    8.3872    2.3439 C.3     1  LIG  -0.0823   0.0000 
2     C2      -6.6223    8.2908    3.8808 C.3     1  LIG  -0.1507   0.0610 
3     C3      -7.9404    7.7728    4.4523 C.3     1  LIG  -0.0556   0.0000 
4     C4      -8.2141    6.3182    4.0152 C.3     1  LIG  -0.0382   0.1435 
5     C5      -6.9951    5.4259    3.7703 C.ar    1  LIG  -0.0488  -0.1435 
6     C6      -7.1668    4.0747    3.3470 C.ar    1  LIG  -0.0592   0.0000 
7     C7      -8.4308    3.4624    3.1734 C.ar    1  LIG  -0.0932  -0.1500 
8     C8      -8.5551    2.1359    2.7558 C.ar    1  LIG  -0.1400  -0.1500 
9     C9      -7.4150    1.3908    2.5012 C.ar    1  LIG   0.1300   0.0825 
10    C10     -6.1524    1.9546    2.6579 C.ar    1  LIG  -0.2184  -0.1500 
11    C11     -6.0162    3.2889    3.0772 C.ar    1  LIG   0.0015   0.0000 
12    C12     -4.7396    3.8453    3.2284 C.ar    1  LIG  -0.1305  -0.1500 
13    C13     -4.5749    5.1638    3.6437 C.ar    1  LIG  -0.1085  -0.1500 
14    C14     -5.6879    5.9623    3.9071 C.ar    1  LIG  -0.0730  -0.1435 
15    C15     -5.5415    7.3635    4.4338 C.3     1  LIG  -0.0238   0.1435 
16    C16     -4.2533    8.1743    4.2575 C.3     1  LIG  -0.0707   0.0000 
17    C17     -4.6795    9.5898    4.7104 C.3     1  LIG  -0.1882   0.0610 
18    C18     -6.1774    9.6197    4.4247 C.2     1  LIG   0.5784   0.4480 
19    O1      -6.8945   10.5944    4.5958 O.2     1  LIG  -0.5180  -0.5700 
20    O2      -7.5660    0.0959    2.0943 O.3     1  LIG  -0.4966  -0.5325 
21    H1      -6.6849   -0.2919    1.9570 H       1  LIG   0.4199   0.4500 
22    H2      -5.7734    8.8144    1.9237 H       1  LIG   0.0381   0.0000 
23    H3      -6.8574    7.4257    1.8510 H       1  LIG   0.0549   0.0000 
24    H4      -7.5079    9.0544    2.0437 H       1  LIG   0.0463   0.0000 
25    H5      -7.9094    7.8142    5.5501 H       1  LIG   0.0483   0.0000 
26    H6      -8.7828    8.4129    4.1617 H       1  LIG   0.0587   0.0000 
27    H7      -8.8562    5.8523    4.7724 H       1  LIG   0.0554   0.0000 
28    H8      -8.7837    6.3590    3.0774 H       1  LIG   0.0530   0.0000 
29    H9      -9.3486    4.0143    3.3631 H       1  LIG   0.1371   0.1500 
30    H10     -9.5414    1.6975    2.6335 H       1  LIG   0.1520   0.1500 
31    H11     -5.2677    1.3554    2.4527 H       1  LIG   0.1356   0.1500 
32    H12     -3.8502    3.2502    3.0291 H       1  LIG   0.1331   0.1500 
33    H13     -3.5674    5.5512    3.7667 H       1  LIG   0.1337   0.1500 
34    H14     -5.6091    7.2095    5.5284 H       1  LIG   0.0632   0.0000 
35    H15     -3.4253    7.7945    4.8649 H       1  LIG   0.0517   0.0000 
36    H16     -3.9220    8.1846    3.2128 H       1  LIG   0.0529   0.0000 
37    H17     -4.5241    9.7185    5.7854 H       1  LIG   0.0754   0.0000 
38    H18     -4.1572   10.3641    4.1446 H       1  LIG   0.0766   0.0000 
@<TRIPOS>BOND
1     1     2     1
2     1     22    1
3     1     23    1
4     1     24    1
5     2     15    1
6     2     18    1
7     2     3     1
8     3     4     1
9     3     25    1
10    3     26    1
11    4     5     1
12    4     27    1
13    4     28    1
14    5     14    ar
15    5     6     ar
16    6     11    ar
17    6     7     ar
18    7     8     ar
19    7     29    1
20    8     9     ar
21    8     30    1
22    9     10    ar
23    9     20    1
24    10    11    ar
25    10    31    1
26    11    12    ar
27    12    13    ar
28    12    32    1
29    13    14    ar
30    13    33    1
31    14    15    1
32    15    16    1
33    15    34    1
34    16    17    1
35    16    35    1
36    16    36    1
37    17    18    1
38    17    37    1
39    17    38    1
40    18    19    2
41    20    21    1
@<TRIPOS>SUBSTRUCTURE
1   LIG    1    
 
########## Number      : 294
########## Name        : ZINC00001365
########## Description : AM1BCC_CHARGES =  -0.0001 ORIGINAL_CHARGES =   0.0000

@<TRIPOS>MOLECULE
ZINC00001365
40    43    1     0     0    
SMALL
USER_CHARGES
****
****
@<TRIPOS>ATOM
1     C1      -6.2942    8.4329    2.4611 C.3     1  LIG  -0.0820   0.0000 
2     C2      -6.4515    8.2312    3.9823 C.3     1  LIG  -0.1484   0.0610 
3     C3      -7.8722    7.7530    4.3051 C.3     1  LIG  -0.0580   0.0000 
4     C4      -8.1279    6.3263    3.7678 C.3     1  LIG  -0.0700   0.0000 
5     C5      -7.0300    5.2904    4.1753 C.3     1  LIG   0.0250   0.2817 
6     C6      -7.2521    3.9732    3.4368 C.ar    1  LIG  -0.1017  -0.1435 
7     C7      -8.4882    3.3104    3.5748 C.ar    1  LIG  -0.0952  -0.1500 
8     C8      -8.7371    2.0967    2.9335 C.ar    1  LIG  -0.1562  -0.1500 
9     C9      -7.7443    1.5198    2.1556 C.ar    1  LIG   0.1263   0.0825 
10    C10     -6.5044    2.1369    2.0206 C.ar    1  LIG  -0.2177  -0.1500 
11    C11     -6.2466    3.3603    2.6652 C.ar    1  LIG  -0.0286  -0.1435 
12    C12     -4.8743    3.9619    2.5175 C.3     1  LIG  -0.0029   0.2817 
13    C13     -4.6852    5.2699    3.2083 C.2     1  LIG  -0.1649  -0.2882 
14    C14     -5.6402    5.8701    3.9315 C.2     1  LIG  -0.0913  -0.2764 
15    C15     -5.4842    7.2170    4.5905 C.3     1  LIG  -0.0315   0.1382 
16    C16     -4.1527    7.9749    4.6461 C.3     1  LIG  -0.0713   0.0000 
17    C17     -4.5875    9.3662    5.1654 C.3     1  LIG  -0.1889   0.0610 
18    C18     -6.0312    9.4929    4.6844 C.2     1  LIG   0.5771   0.4480 
19    O1      -6.7253   10.4874    4.8358 O.2     1  LIG  -0.5184  -0.5700 
20    O2      -8.0135    0.3314    1.5389 O.3     1  LIG  -0.4975  -0.5325 
21    H1      -7.2272    0.0571    1.0370 H       1  LIG   0.4182   0.4500 
22    H2      -5.3156    8.8541    2.2054 H       1  LIG   0.0357   0.0000 
23    H3      -6.4124    7.5097    1.8871 H       1  LIG   0.0540   0.0000 
24    H4      -7.0412    9.1471    2.0941 H       1  LIG   0.0472   0.0000 
25    H5      -8.0332    7.7599    5.3914 H       1  LIG   0.0457   0.0000 
26    H6      -8.6174    8.4405    3.8863 H       1  LIG   0.0589   0.0000 
27    H7      -9.1085    6.0029    4.1376 H       1  LIG   0.0437   0.0000 
28    H8      -8.2188    6.3634    2.6742 H       1  LIG   0.0528   0.0000 
29    H9      -7.1520    5.1193    5.2612 H       1  LIG   0.0614   0.0000 
30    H10     -9.2740    3.7343    4.1955 H       1  LIG   0.1346   0.1500 
31    H11     -9.7009    1.6099    3.0508 H       1  LIG   0.1508   0.1500 
32    H12     -5.7257    1.6708    1.4214 H       1  LIG   0.1325   0.1500 
33    H13     -4.1344    3.2545    2.9113 H       1  LIG   0.0607   0.0000 
34    H14     -4.6680    4.1064    1.4499 H       1  LIG   0.0605   0.0000 
35    H15     -3.7169    5.7437    3.0775 H       1  LIG   0.1264   0.1500 
36    H16     -5.6863    6.9899    5.6549 H       1  LIG   0.0588   0.0000 
37    H17     -3.4265    7.5050    5.3170 H       1  LIG   0.0532   0.0000 
38    H18     -3.6887    8.0671    3.6579 H       1  LIG   0.0500   0.0000 
39    H19     -4.5776    9.3949    6.2587 H       1  LIG   0.0750   0.0000 
40    H20     -3.9648   10.1604    4.7481 H       1  LIG   0.0759   0.0000 
@<TRIPOS>BOND
1     1     2     1
2     1     22    1
3     1     23    1
4     1     24    1
5     2     15    1
6     2     18    1
7     2     3     1
8     3     4     1
9     3     25    1
10    3     26    1
11    4     5     1
12    4     27    1
13    4     28    1
14    5     14    1
15    5     6     1
16    5     29    1
17    6     11    ar
18    6     7     ar
19    7     8     ar
20    7     30    1
21    8     9     ar
22    8     31    1
23    9     10    ar
24    9     20    1
25    10    11    ar
26    10    32    1
27    11    12    1
28    12    13    1
29    12    33    1
30    12    34    1
31    13    14    2
32    13    35    1
33    14    15    1
34    15    16    1
35    15    36    1
36    16    17    1
37    16    37    1
38    16    38    1
39    17    18    1
40    17    39    1
41    17    40    1
42    18    19    2
43    20    21    1
@<TRIPOS>SUBSTRUCTURE
1   LIG    1    
 
########## Number      : 295
########## Name        : ZINC00001369
########## Description : AM1BCC_CHARGES =  -0.0001 ORIGINAL_CHARGES =   0.0000

@<TRIPOS>MOLECULE
ZINC00001369
42    44    1     0     0    
SMALL
USER_CHARGES
****
****
@<TRIPOS>ATOM
1     C1       0.8900   -0.9709    1.5746 C.3     1  LIG  -0.0846   0.0000 
2     C2       2.4016   -0.6880    1.5757 C.3     1  LIG  -0.0140   0.1435 
3     C3       2.7895    0.1423    0.3275 C.3     1  LIG  -0.0695   0.0000 
4     C4       2.8858   -0.7034   -0.9550 C.3     1  LIG   0.1100   0.2700 
5     N1       3.0818   -2.1233   -0.6513 N.3     1  LIG  -0.4629  -0.6400 
6     O1       4.0157   -2.1535    0.4657 O.3     1  LIG  -0.2485  -0.1800 
7     C5       3.2318   -2.0085    1.6567 C.3     1  LIG   0.4082   0.6491 
8     N2       4.1127   -1.8523    2.8122 N.pl3   1  LIG  -0.6477  -0.8382 
9     C6       3.7749   -0.6975    3.4999 C.ar    1  LIG   0.1563   0.1000 
10    C7       2.7886    0.0520    2.8346 C.ar    1  LIG  -0.1371  -0.1435 
11    C8       2.3150    1.2548    3.3344 C.ar    1  LIG  -0.0699  -0.1500 
12    C9       2.8617    1.7060    4.5339 C.ar    1  LIG   0.0706   0.0825 
13    C10      3.8306    0.9713    5.2294 C.ar    1  LIG  -0.0851  -0.1500 
14    C11      4.2949   -0.2373    4.7033 C.ar    1  LIG  -0.1669  -0.1500 
15    O2       2.3886    2.8976    5.0935 O.3     1  LIG  -0.3737  -0.2325 
16    C12      3.0673    4.0279    4.6478 C.2     1  LIG   0.7371   0.7800 
17    O3       3.9975    4.0256    3.8481 O.2     1  LIG  -0.5666  -0.5700 
18    N3       2.5296    5.1457    5.2466 N.am    1  LIG  -0.5574  -0.7301 
19    C13      3.0012    6.4884    5.0043 C.3     1  LIG   0.0888   0.3001 
20    C14      4.8933   -2.9351    3.3526 C.3     1  LIG   0.1968   0.3691 
21    C15      3.7420   -2.8355   -1.7359 C.3     1  LIG   0.1301   0.2700 
22    H1       1.7582    5.0128    5.8919 H       1  LIG   0.3293   0.3700 
23    H2       0.3058   -0.0439    1.5437 H       1  LIG   0.0406   0.0000 
24    H3       0.5954   -1.5748    0.7098 H       1  LIG   0.0500   0.0000 
25    H4       0.5870   -1.5158    2.4767 H       1  LIG   0.0416   0.0000 
26    H5       2.0986    0.9808    0.1741 H       1  LIG   0.0546   0.0000 
27    H6       3.7774    0.5964    0.4950 H       1  LIG   0.0694   0.0000 
28    H7       1.9569   -0.5994   -1.5276 H       1  LIG   0.0563   0.0000 
29    H8       3.6927   -0.2978   -1.5786 H       1  LIG   0.0371   0.0000 
30    H9       2.5642   -2.8790    1.7749 H       1  LIG   0.0593   0.0000 
31    H10      1.5531    1.8238    2.8144 H       1  LIG   0.1474   0.1500 
32    H11      4.2268    1.3385    6.1718 H       1  LIG   0.1444   0.1500 
33    H12      5.0544   -0.7973    5.2393 H       1  LIG   0.1417   0.1500 
34    H13      3.3079    6.9199    5.9602 H       1  LIG   0.0278   0.0000 
35    H14      3.8420    6.4965    4.3068 H       1  LIG   0.0780   0.0000 
36    H15      2.1733    7.0717    4.5939 H       1  LIG   0.0367   0.0000 
37    H16      5.8622   -2.5787    3.7173 H       1  LIG   0.0502   0.0000 
38    H17      4.3625   -3.4210    4.1778 H       1  LIG   0.0134   0.0000 
39    H18      5.0913   -3.6925    2.5868 H       1  LIG   0.0615   0.0000 
40    H19      3.1276   -2.8080   -2.6420 H       1  LIG   0.0536   0.0000 
41    H20      4.7276   -2.4178   -1.9710 H       1  LIG   0.0320   0.0000 
42    H21      3.8738   -3.8891   -1.4675 H       1  LIG   0.0610   0.0000 
@<TRIPOS>BOND
1     1     2     1
2     1     23    1
3     1     24    1
4     1     25    1
5     2     7     1
6     2     10    1
7     2     3     1
8     3     4     1
9     3     26    1
10    3     27    1
11    4     5     1
12    4     28    1
13    4     29    1
14    5     6     1
15    5     21    1
16    6     7     1
17    7     8     1
18    7     30    1
19    8     9     1
20    8     20    1
21    9     14    ar
22    9     10    ar
23    10    11    ar
24    11    12    ar
25    11    31    1
26    12    13    ar
27    12    15    1
28    13    14    ar
29    13    32    1
30    14    33    1
31    15    16    1
32    16    17    2
33    16    18    am
34    18    19    1
35    18    22    1
36    19    34    1
37    19    35    1
38    19    36    1
39    20    37    1
40    20    38    1
41    20    39    1
42    21    40    1
43    21    41    1
44    21    42    1
@<TRIPOS>SUBSTRUCTURE
1   LIG    1    
 
########## Number      : 296
########## Name        : ZINC00001370
########## Description : AM1BCC_CHARGES =  -0.0003 ORIGINAL_CHARGES =   0.0000

@<TRIPOS>MOLECULE
ZINC00001370
32    35    1     0     0    
SMALL
USER_CHARGES
****
****
@<TRIPOS>ATOM
1     C1      -0.1740    7.0485    7.1756 C.ar    1  LIG  -0.1131  -0.1500 
2     C2      -0.5384    5.7058    7.0763 C.ar    1  LIG  -0.1376  -0.1500 
3     C3      -1.5128    5.3110    6.1592 C.ar    1  LIG  -0.0861  -0.1500 
4     C4      -2.1304    6.2678    5.3458 C.ar    1  LIG  -0.1498   0.0862 
5     C5      -1.7551    7.6135    5.4354 C.ar    1  LIG  -0.1078  -0.1500 
6     C6      -0.7794    8.0001    6.3548 C.ar    1  LIG  -0.1350  -0.1500 
7     C7      -3.1618    5.8302    4.3563 C.2     1  LIG   0.5369   0.2776 
8     N1      -2.8821    4.7690    3.6787 N.2     1  LIG  -0.5779  -0.6960 
9     C8      -3.8049    4.2769    2.6733 C.3     1  LIG   0.0866   0.4260 
10    C9      -3.9396    5.2570    1.5744 C.2     1  LIG   0.3629   0.0065 
11    N2      -3.6628    5.0730    0.3005 N.2     1  LIG  -0.3304  -0.3381 
12    N3      -4.0735    6.1902   -0.3842 N.2     1  LIG  -0.3402  -0.3381 
13    C10     -4.5892    7.0233    0.4903 C.2     1  LIG   0.3658   0.0365 
14    N4      -4.4932    6.5041    1.7555 N.pl3   1  LIG  -0.2754   0.3262 
15    C11     -4.9403    7.0619    2.9742 C.ar    1  LIG   0.0321  -0.0230 
16    C12     -4.4047    6.6615    4.2147 C.ar    1  LIG  -0.1790   0.0862 
17    C13     -4.9801    7.1552    5.3992 C.ar    1  LIG  -0.0816  -0.1500 
18    C14     -6.0287    8.0730    5.3453 C.ar    1  LIG   0.0050   0.1770 
19    C15     -6.5166    8.5149    4.1203 C.ar    1  LIG  -0.0949  -0.1500 
20    C16     -5.9743    8.0124    2.9367 C.ar    1  LIG  -0.1410  -0.1500 
21    Cl1     -6.7107    8.6785    6.8058 Cl      1  LIG  -0.0714  -0.1770 
22    H1       0.5862    7.3528    7.8896 H       1  LIG   0.1354   0.1500 
23    H2      -0.0617    4.9660    7.7132 H       1  LIG   0.1373   0.1500 
24    H3      -1.7867    4.2612    6.0950 H       1  LIG   0.1488   0.1500 
25    H4      -2.2005    8.3678    4.7926 H       1  LIG   0.1380   0.1500 
26    H5      -0.4867    9.0438    6.4283 H       1  LIG   0.1367   0.1500 
27    H6      -3.4078    3.3378    2.2717 H       1  LIG   0.1109   0.0000 
28    H7      -4.7797    4.0323    3.1124 H       1  LIG   0.0692   0.0000 
29    H8      -5.0015    7.9955    0.2601 H       1  LIG   0.0760   0.1500 
30    H9      -4.6028    6.8392    6.3697 H       1  LIG   0.1686   0.1500 
31    H10     -7.3291    9.2353    4.0708 H       1  LIG   0.1585   0.1500 
32    H11     -6.4129    8.3489    2.0008 H       1  LIG   0.1522   0.1500 
@<TRIPOS>BOND
1     1     6     ar
2     1     2     ar
3     1     22    1
4     2     3     ar
5     2     23    1
6     3     4     ar
7     3     24    1
8     4     5     ar
9     4     7     1
10    5     6     ar
11    5     25    1
12    6     26    1
13    7     16    1
14    7     8     2
15    8     9     1
16    9     10    1
17    9     27    1
18    9     28    1
19    10    14    1
20    10    11    2
21    11    12    1
22    12    13    2
23    13    14    1
24    13    29    1
25    14    15    1
26    15    20    ar
27    15    16    ar
28    16    17    ar
29    17    18    ar
30    17    30    1
31    18    19    ar
32    18    21    1
33    19    20    ar
34    19    31    1
35    20    32    1
@<TRIPOS>SUBSTRUCTURE
1   LIG    1    
 
########## Number      : 297
########## Name        : ZINC00001371
########## Description : AM1BCC_CHARGES =  -0.0002 ORIGINAL_CHARGES =   0.0000

@<TRIPOS>MOLECULE
ZINC00001371
44    47    1     0     0    
SMALL
USER_CHARGES
****
****
@<TRIPOS>ATOM
1     C1      -0.6697   -8.1954   -3.0119 C.3     1  LIG  -0.0850   0.0000 
2     C2      -1.5718   -7.2029   -2.2307 C.3     1  LIG  -0.0878   0.0000 
3     C3      -0.8956   -6.8880   -0.8839 C.3     1  LIG  -0.0678   0.0000 
4     C4       0.4055   -6.0774   -1.0632 C.3     1  LIG  -0.0683   0.0000 
5     C5       0.2111   -4.8037   -1.9390 C.3     1  LIG  -0.0089   0.1435 
6     C6       1.5245   -4.0786   -2.2254 C.ar    1  LIG  -0.0996  -0.1435 
7     C7       2.5661   -4.0470   -1.2791 C.ar    1  LIG  -0.0971  -0.1500 
8     C8       3.7456   -3.3380   -1.5173 C.ar    1  LIG  -0.1590  -0.1500 
9     C9       3.8946   -2.6323   -2.7014 C.ar    1  LIG   0.1232   0.0825 
10    C10      2.8750   -2.6190   -3.6467 C.ar    1  LIG  -0.2173  -0.1500 
11    C11      1.6809   -3.3248   -3.4122 C.ar    1  LIG  -0.0321  -0.1435 
12    C12      0.6219   -3.2802   -4.4885 C.3     1  LIG  -0.0375   0.1435 
13    C13     -0.7205   -3.8724   -4.0691 C.3     1  LIG  -0.0733   0.0000 
14    C14     -0.4861   -5.1650   -3.2749 C.3     1  LIG  -0.0490   0.0000 
15    C15     -1.8040   -5.8738   -2.9481 C.3     1  LIG  -0.0600   0.0000 
16    C16     -2.7489   -6.2394   -4.0920 C.3     1  LIG  -0.0710   0.0000 
17    C17     -3.6109   -7.3885   -3.5085 C.3     1  LIG  -0.0784   0.0000 
18    C18     -2.9858   -7.7840   -2.1430 C.3     1  LIG   0.1438   0.2800 
19    O1      -3.7254   -7.1442   -1.1113 O.3     1  LIG  -0.5969  -0.6800 
20    O2       5.0598   -1.9508   -2.9075 O.3     1  LIG  -0.4988  -0.5325 
21    H1      -3.4416   -7.5322   -0.2661 H       1  LIG   0.3990   0.4000 
22    H2       5.0122   -1.5099   -3.7728 H       1  LIG   0.4174   0.4500 
23    H3      -1.0801   -8.4418   -3.9965 H       1  LIG   0.0381   0.0000 
24    H4       0.3459   -7.8272   -3.1751 H       1  LIG   0.0433   0.0000 
25    H5      -0.5817   -9.1384   -2.4589 H       1  LIG   0.0319   0.0000 
26    H6      -1.5626   -6.2957   -0.2452 H       1  LIG   0.0453   0.0000 
27    H7      -0.6802   -7.8126   -0.3348 H       1  LIG   0.0386   0.0000 
28    H8       0.7474   -5.7973   -0.0597 H       1  LIG   0.0386   0.0000 
29    H9       1.1909   -6.7145   -1.4868 H       1  LIG   0.0481   0.0000 
30    H10     -0.4418   -4.1432   -1.3383 H       1  LIG   0.0574   0.0000 
31    H11      2.4802   -4.5666   -0.3295 H       1  LIG   0.1341   0.1500 
32    H12      4.5357   -3.3383   -0.7718 H       1  LIG   0.1491   0.1500 
33    H13      2.9965   -2.0599   -4.5715 H       1  LIG   0.1316   0.1500 
34    H14      0.4641   -2.2442   -4.8119 H       1  LIG   0.0507   0.0000 
35    H15      1.0008   -3.8405   -5.3530 H       1  LIG   0.0510   0.0000 
36    H16     -1.2716   -3.1482   -3.4551 H       1  LIG   0.0467   0.0000 
37    H17     -1.3230   -4.0542   -4.9659 H       1  LIG   0.0452   0.0000 
38    H18      0.1526   -5.7941   -3.9158 H       1  LIG   0.0593   0.0000 
39    H19     -2.3758   -5.1508   -2.3359 H       1  LIG   0.0600   0.0000 
40    H20     -3.3729   -5.3938   -4.3987 H       1  LIG   0.0461   0.0000 
41    H21     -2.1997   -6.5866   -4.9744 H       1  LIG   0.0407   0.0000 
42    H22     -4.6530   -7.0699   -3.3978 H       1  LIG   0.0669   0.0000 
43    H23     -3.5872   -8.2369   -4.2018 H       1  LIG   0.0450   0.0000 
44    H24     -3.0380   -8.8723   -2.0007 H       1  LIG   0.0365   0.0000 
@<TRIPOS>BOND
1     1     2     1
2     1     23    1
3     1     24    1
4     1     25    1
5     2     15    1
6     2     18    1
7     2     3     1
8     3     4     1
9     3     26    1
10    3     27    1
11    4     5     1
12    4     28    1
13    4     29    1
14    5     14    1
15    5     6     1
16    5     30    1
17    6     11    ar
18    6     7     ar
19    7     8     ar
20    7     31    1
21    8     9     ar
22    8     32    1
23    9     10    ar
24    9     20    1
25    10    11    ar
26    10    33    1
27    11    12    1
28    12    13    1
29    12    34    1
30    12    35    1
31    13    14    1
32    13    36    1
33    13    37    1
34    14    15    1
35    14    38    1
36    15    16    1
37    15    39    1
38    16    17    1
39    16    40    1
40    16    41    1
41    17    18    1
42    17    42    1
43    17    43    1
44    18    19    1
45    18    44    1
46    19    21    1
47    20    22    1
@<TRIPOS>SUBSTRUCTURE
1   LIG    1    
 
########## Number      : 298
########## Name        : ZINC00001373
########## Description : AM1BCC_CHARGES =  -0.0000 ORIGINAL_CHARGES =   0.0000

@<TRIPOS>MOLECULE
ZINC00001373
45    48    1     0     0    
SMALL
USER_CHARGES
****
****
@<TRIPOS>ATOM
1     C1      -0.7027    0.7647   -9.0559 C.3     1  LIG  -0.0886   0.0000 
2     C2      -0.6371   -0.3481  -10.1362 C.3     1  LIG  -0.0453   0.0000 
3     C3       0.8200   -0.8393  -10.2337 C.3     1  LIG  -0.0600   0.0000 
4     C4       1.2688   -1.5887   -8.9610 C.3     1  LIG  -0.0722   0.0000 
5     C5       0.2852   -2.7221   -8.5418 C.3     1  LIG  -0.0090   0.1435 
6     C6       0.6597   -3.3643   -7.2077 C.ar    1  LIG  -0.1000  -0.1435 
7     C7       2.0040   -3.5116   -6.8163 C.ar    1  LIG  -0.0908  -0.1500 
8     C8       2.3513   -4.1484   -5.6223 C.ar    1  LIG  -0.2149  -0.1500 
9     C9       1.3542   -4.6656   -4.8079 C.ar    1  LIG   0.1229   0.0825 
10    C10      0.0188   -4.5619   -5.1775 C.ar    1  LIG  -0.1619  -0.1500 
11    C11     -0.3393   -3.9286   -6.3808 C.ar    1  LIG  -0.0379  -0.1435 
12    C12     -1.8103   -3.8384   -6.7106 C.3     1  LIG  -0.0374   0.1435 
13    C13     -2.1044   -3.3481   -8.1255 C.3     1  LIG  -0.0738   0.0000 
14    C14     -1.1664   -2.1832   -8.4713 C.3     1  LIG  -0.0478   0.0000 
15    C15     -1.5089   -1.5646   -9.8299 C.3     1  LIG  -0.0644   0.0000 
16    C16     -2.9271   -1.0574  -10.0768 C.3     1  LIG  -0.1009   0.0000 
17    C17     -2.7487   -0.1669  -11.3363 C.3     1  LIG   0.1025   0.2800 
18    C18     -1.2435    0.1883  -11.4525 C.3     1  LIG   0.1098   0.2800 
19    O1      -0.7092   -0.5185  -12.5641 O.3     1  LIG  -0.5910  -0.6800 
20    O2      -3.5120    1.0212  -11.1939 O.3     1  LIG  -0.5929  -0.6800 
21    O3       1.6543   -5.2925   -3.6324 O.3     1  LIG  -0.4990  -0.5325 
22    H1      -1.1228   -0.1537  -13.3653 H       1  LIG   0.4039   0.4000 
23    H2      -3.2031    1.4980  -10.4060 H       1  LIG   0.4004   0.4000 
24    H3       2.6196   -5.2856   -3.5155 H       1  LIG   0.4178   0.4500 
25    H4      -1.7204    1.1297   -8.8936 H       1  LIG   0.0248   0.0000 
26    H5      -0.3243    0.4487   -8.0809 H       1  LIG   0.0486   0.0000 
27    H6      -0.0990    1.6264   -9.3651 H       1  LIG   0.0379   0.0000 
28    H7       0.9380   -1.5297  -11.0784 H       1  LIG   0.0641   0.0000 
29    H8       1.4984    0.0013  -10.4233 H       1  LIG   0.0441   0.0000 
30    H9       2.2600   -2.0080   -9.1709 H       1  LIG   0.0395   0.0000 
31    H10      1.4061   -0.8799   -8.1358 H       1  LIG   0.0439   0.0000 
32    H11      0.3681   -3.4803   -9.3428 H       1  LIG   0.0584   0.0000 
33    H12      2.8142   -3.1413   -7.4375 H       1  LIG   0.1338   0.1500 
34    H13      3.3988   -4.2364   -5.3494 H       1  LIG   0.1324   0.1500 
35    H14     -0.7511   -4.9764   -4.5305 H       1  LIG   0.1484   0.1500 
36    H15     -2.2832   -4.8181   -6.5719 H       1  LIG   0.0536   0.0000 
37    H16     -2.2713   -3.1464   -5.9938 H       1  LIG   0.0523   0.0000 
38    H17     -1.9647   -4.1690   -8.8408 H       1  LIG   0.0466   0.0000 
39    H18     -3.1566   -3.0488   -8.1839 H       1  LIG   0.0441   0.0000 
40    H19     -1.2950   -1.4499   -7.6589 H       1  LIG   0.0588   0.0000 
41    H20     -1.3742   -2.3847  -10.5607 H       1  LIG   0.0632   0.0000 
42    H21     -3.6248   -1.8772  -10.2784 H       1  LIG   0.0562   0.0000 
43    H22     -3.3215   -0.4932   -9.2247 H       1  LIG   0.0495   0.0000 
44    H23     -3.1128   -0.7282  -12.2100 H       1  LIG   0.0827   0.0000 
45    H24     -1.0287    1.2604  -11.5673 H       1  LIG   0.0476   0.0000 
@<TRIPOS>BOND
1     1     2     1
2     1     25    1
3     1     26    1
4     1     27    1
5     2     15    1
6     2     18    1
7     2     3     1
8     3     4     1
9     3     28    1
10    3     29    1
11    4     5     1
12    4     30    1
13    4     31    1
14    5     14    1
15    5     6     1
16    5     32    1
17    6     11    ar
18    6     7     ar
19    7     8     ar
20    7     33    1
21    8     9     ar
22    8     34    1
23    9     10    ar
24    9     21    1
25    10    11    ar
26    10    35    1
27    11    12    1
28    12    13    1
29    12    36    1
30    12    37    1
31    13    14    1
32    13    38    1
33    13    39    1
34    14    15    1
35    14    40    1
36    15    16    1
37    15    41    1
38    16    17    1
39    16    42    1
40    16    43    1
41    17    18    1
42    17    20    1
43    17    44    1
44    18    19    1
45    18    45    1
46    19    22    1
47    20    23    1
48    21    24    1
@<TRIPOS>SUBSTRUCTURE
1   LIG    1    
 
########## Number      : 299
########## Name        : ZINC00001376
########## Description : AM1BCC_CHARGES =   1.0003 ORIGINAL_CHARGES =   1.0000

@<TRIPOS>MOLECULE
ZINC00001376
52    53    1     0     0    
SMALL
USER_CHARGES
****
****
@<TRIPOS>ATOM
1     C1       7.4595   -8.6576   -3.2038 C.3     1  LIG  -0.1368   0.0000 
2     C2       6.4978   -9.7459   -2.7600 C.3     1  LIG   0.1131   0.5030 
3     C3       4.0172  -10.1797   -2.6878 C.3     1  LIG   0.1072   0.5030 
4     C4       3.6813  -10.3110   -4.1629 C.3     1  LIG  -0.1356   0.0000 
5     C5       5.0493   -8.5048   -1.1171 C.3     1  LIG   0.0881   0.5030 
6     C6       4.0070   -7.3902   -1.0988 C.3     1  LIG   0.1144   0.2800 
7     O1       4.0384   -6.8054    0.2037 O.3     1  LIG  -0.3083  -0.3625 
8     C7       3.2769   -5.6878    0.4234 C.ar    1  LIG   0.1370   0.0825 
9     C8       2.3294   -5.1912   -0.4799 C.ar    1  LIG  -0.2041  -0.1500 
10    C9       1.5691   -4.0629   -0.1621 C.ar    1  LIG  -0.0706  -0.1500 
11    C10      1.7441   -3.4202    1.0598 C.ar    1  LIG  -0.1444  -0.1500 
12    C11      2.6811   -3.9025    1.9711 C.ar    1  LIG  -0.0632  -0.1500 
13    C12      3.4465   -5.0340    1.6587 C.ar    1  LIG  -0.1772   0.0862 
14    C13      4.4560   -5.5134    2.6435 C.2     1  LIG   0.5899   0.4228 
15    O2       5.5492   -5.9099    2.2494 O.2     1  LIG  -0.5320  -0.5700 
16    C14      4.0887   -5.4591    4.1169 C.3     1  LIG  -0.1736   0.0610 
17    C15      4.8787   -6.4864    4.9283 C.3     1  LIG  -0.0262   0.1435 
18    C16      4.4806   -6.4719    6.3816 C.ar    1  LIG  -0.0943  -0.1435 
19    C17      5.1129   -5.6046    7.2826 C.ar    1  LIG  -0.1247  -0.1500 
20    C18      4.7315   -5.5791    8.6250 C.ar    1  LIG  -0.1241  -0.1500 
21    C19      3.7128   -6.4157    9.0776 C.ar    1  LIG  -0.1225  -0.1500 
22    C20      3.0732   -7.2773    8.1881 C.ar    1  LIG  -0.1256  -0.1500 
23    C21      3.4530   -7.3045    6.8453 C.ar    1  LIG  -0.1282  -0.1500 
24    H1       8.4364   -9.0951   -3.4335 H       1  LIG   0.1017   0.0000 
25    H2       7.0962   -8.1561   -4.1069 H       1  LIG   0.0655   0.0000 
26    H3       7.6100   -7.8993   -2.4305 H       1  LIG   0.0722   0.0000 
27    H4       6.3990  -10.4875   -3.5578 H       1  LIG   0.1005   0.0000 
28    H5       6.8321  -10.2514   -1.8479 H       1  LIG   0.1076   0.0000 
29    H6       4.3533  -11.1258   -2.2507 H       1  LIG   0.1063   0.0000 
30    H7       3.1318   -9.8361   -2.1455 H       1  LIG   0.1044   0.0000 
31    H8       2.8594  -11.0218   -4.2957 H       1  LIG   0.1016   0.0000 
32    H9       3.3642   -9.3500   -4.5811 H       1  LIG   0.0654   0.0000 
33    H10      4.5305  -10.6738   -4.7486 H       1  LIG   0.0667   0.0000 
34    H11      4.8366   -9.2865   -0.3785 H       1  LIG   0.1227   0.0000 
35    H12      6.0322   -8.0864   -0.8769 H       1  LIG   0.1273   0.0000 
36    H13      4.2633   -6.6394   -1.8562 H       1  LIG   0.0635   0.0000 
37    H14      3.0084   -7.7938   -1.2953 H       1  LIG   0.0501   0.0000 
38    H15      2.1485   -5.6632   -1.4406 H       1  LIG   0.1321   0.1500 
39    H16      0.8366   -3.6869   -0.8713 H       1  LIG   0.1496   0.1500 
40    H17      1.1530   -2.5413    1.3013 H       1  LIG   0.1554   0.1500 
41    H18      2.8101   -3.3739    2.9116 H       1  LIG   0.1539   0.1500 
42    H19      4.2949   -4.4473    4.4847 H       1  LIG   0.0786   0.0000 
43    H20      3.0152   -5.6547    4.2265 H       1  LIG   0.0745   0.0000 
44    H21      4.7287   -7.4922    4.5146 H       1  LIG   0.0520   0.0000 
45    H22      5.9562   -6.2934    4.8451 H       1  LIG   0.0649   0.0000 
46    H23      5.9064   -4.9433    6.9434 H       1  LIG   0.1318   0.1500 
47    H24      5.2284   -4.9054    9.3172 H       1  LIG   0.1376   0.1500 
48    H25      3.4163   -6.3949   10.1223 H       1  LIG   0.1386   0.1500 
49    H26      2.2772   -7.9274    8.5398 H       1  LIG   0.1354   0.1500 
50    H27      2.9418   -7.9787    6.1626 H       1  LIG   0.1266   0.1500 
51    N1       5.1225   -9.1536   -2.4898 N.4     1  LIG  -0.6877  -0.9590 
52    H28      4.9741   -8.4105   -3.1861 H       1  LIG   0.4432   0.4500 
@<TRIPOS>BOND
1     1     2     1
2     1     24    1
3     1     25    1
4     1     26    1
5     2     27    1
6     2     28    1
7     2     51    1
8     3     4     1
9     3     29    1
10    3     30    1
11    3     51    1
12    4     31    1
13    4     32    1
14    4     33    1
15    5     6     1
16    5     34    1
17    5     35    1
18    5     51    1
19    6     7     1
20    6     36    1
21    6     37    1
22    7     8     1
23    8     13    ar
24    8     9     ar
25    9     10    ar
26    9     38    1
27    10    11    ar
28    10    39    1
29    11    12    ar
30    11    40    1
31    12    13    ar
32    12    41    1
33    13    14    1
34    14    15    2
35    14    16    1
36    16    17    1
37    16    42    1
38    16    43    1
39    17    18    1
40    17    44    1
41    17    45    1
42    18    23    ar
43    18    19    ar
44    19    20    ar
45    19    46    1
46    20    21    ar
47    20    47    1
48    21    22    ar
49    21    48    1
50    22    23    ar
51    22    49    1
52    23    50    1
53    51    52    1
@<TRIPOS>SUBSTRUCTURE
1   LIG    1    
 
########## Number      : 300
########## Name        : ZINC00001377
########## Description : AM1BCC_CHARGES =   0.9999 ORIGINAL_CHARGES =   1.0000

@<TRIPOS>MOLECULE
ZINC00001377
42    43    1     0     0    
SMALL
USER_CHARGES
****
****
@<TRIPOS>ATOM
1     C1       0.6135    2.0555    6.0174 C.3     1  LIG  -0.1368   0.0000 
2     C2      -0.4324    3.0444    5.5334 C.3     1  LIG   0.1112   0.5030 
3     C3      -0.6241    5.4984    4.9965 C.3     1  LIG   0.1088   0.5030 
4     C4       0.2495    5.6172    3.7601 C.3     1  LIG  -0.1359   0.0000 
5     C5      -0.4288    4.7457    7.3966 C.3     1  LIG   0.0833   0.5030 
6     C6       0.5021    5.8066    7.9845 C.3     1  LIG   0.0296   0.2556 
7     N1       0.2787    6.1373    9.3818 N.pl3   1  LIG  -0.1953   0.0476 
8     C7      -0.7296    5.6976   10.1993 C.2     1  LIG   0.4491   0.0365 
9     N2      -0.6350    6.1957   11.4145 N.2     1  LIG  -0.6496  -0.5653 
10    C8       0.4738    6.9913   11.3703 C.2     1  LIG   0.5173   0.2902 
11    C9       1.0586    6.9815   10.1326 C.2     1  LIG  -0.3598  -0.2366 
12    C10      2.2314    7.7332    9.8040 C.2     1  LIG   0.7674   0.7150 
13    O1       2.7474    7.7272    8.6898 O.2     1  LIG  -0.6546  -0.5700 
14    N3       2.7122    8.4756   10.9105 N.am    1  LIG  -0.4729  -0.4201 
15    C11      2.1395    8.5197   12.2247 C.2     1  LIG   0.8116   0.6900 
16    O2       2.6357    9.2043   13.1261 O.2     1  LIG  -0.5962  -0.5700 
17    N4       0.9810    7.7379   12.4216 N.am    1  LIG  -0.4112  -0.4231 
18    C12      0.3172    7.7110   13.7182 C.3     1  LIG   0.0823   0.3001 
19    C13      3.9078    9.2864   10.7137 C.3     1  LIG   0.0757   0.3001 
20    H1       0.3532    1.0457    5.6846 H       1  LIG   0.1042   0.0000 
21    H2       1.6013    2.2979    5.6117 H       1  LIG   0.0710   0.0000 
22    H3       0.6892    2.0354    7.1081 H       1  LIG   0.0673   0.0000 
23    H4      -0.4832    3.0108    4.4415 H       1  LIG   0.1070   0.0000 
24    H5      -1.4269    2.8321    5.9399 H       1  LIG   0.1027   0.0000 
25    H6      -1.6509    5.2038    4.7552 H       1  LIG   0.1039   0.0000 
26    H7      -0.6469    6.4602    5.5165 H       1  LIG   0.1053   0.0000 
27    H8      -0.1474    6.3924    3.0968 H       1  LIG   0.1044   0.0000 
28    H9       1.2736    5.8974    4.0278 H       1  LIG   0.0724   0.0000 
29    H10      0.2892    4.6838    3.1919 H       1  LIG   0.0673   0.0000 
30    H11     -1.4816    5.0500    7.4067 H       1  LIG   0.1058   0.0000 
31    H12     -0.3311    3.8124    7.9598 H       1  LIG   0.1146   0.0000 
32    H13      1.5394    5.4577    7.9133 H       1  LIG   0.1101   0.0000 
33    H14      0.4184    6.7496    7.4342 H       1  LIG   0.0761   0.0000 
34    H15     -1.5066    5.0198    9.8733 H       1  LIG   0.0639   0.1500 
35    H16      0.8292    8.3453   14.4462 H       1  LIG   0.0968   0.0000 
36    H17     -0.7100    8.0696   13.5997 H       1  LIG   0.0611   0.0000 
37    H18      0.3080    6.6825   14.0921 H       1  LIG   0.0616   0.0000 
38    H19      4.3043    9.2077    9.6989 H       1  LIG   0.0825   0.0000 
39    H20      3.6620   10.3323   10.9242 H       1  LIG   0.0657   0.0000 
40    H21      4.6741    8.9634   11.4256 H       1  LIG   0.0672   0.0000 
41    N5      -0.0499    4.4582    5.9473 N.4     1  LIG  -0.6876  -0.9590 
42    H22      0.9753    4.5224    5.8809 H       1  LIG   0.4526   0.4500 
@<TRIPOS>BOND
1     1     2     1
2     1     20    1
3     1     21    1
4     1     22    1
5     2     23    1
6     2     24    1
7     2     41    1
8     3     4     1
9     3     25    1
10    3     26    1
11    3     41    1
12    4     27    1
13    4     28    1
14    4     29    1
15    5     6     1
16    5     30    1
17    5     31    1
18    5     41    1
19    6     7     1
20    6     32    1
21    6     33    1
22    7     11    1
23    7     8     1
24    8     9     2
25    8     34    1
26    9     10    1
27    10    17    1
28    10    11    2
29    11    12    1
30    12    13    2
31    12    14    am
32    14    15    am
33    14    19    1
34    15    16    2
35    15    17    am
36    17    18    1
37    18    35    1
38    18    36    1
39    18    37    1
40    19    38    1
41    19    39    1
42    19    40    1
43    41    42    1
@<TRIPOS>SUBSTRUCTURE
1   LIG    1    
 
########## Number      : 301
########## Name        : ZINC00001378
########## Description : AM1BCC_CHARGES =   0.0000 ORIGINAL_CHARGES =   0.0000

@<TRIPOS>MOLECULE
ZINC00001378
36    38    1     0     0    
SMALL
USER_CHARGES
****
****
@<TRIPOS>ATOM
1     C1       8.1739   -6.1118    0.2623 C.3     1  LIG  -0.0901   0.0000 
2     C2       8.1837   -6.2083    1.7810 C.3     1  LIG  -0.0449   0.1435 
3     C3       6.9667   -6.9324    2.3111 C.ar    1  LIG  -0.0455  -0.1435 
4     C4       7.0676   -8.3168    2.5386 C.ar    1  LIG  -0.1273  -0.1500 
5     C5       5.9661   -9.0606    2.9638 C.ar    1  LIG  -0.1177  -0.1500 
6     C6       4.7399   -8.4361    3.1640 C.ar    1  LIG  -0.1311  -0.1500 
7     C7       4.6140   -7.0666    2.9402 C.ar    1  LIG  -0.1227  -0.1500 
8     C8       5.7171   -6.3079    2.5126 C.ar    1  LIG   0.0311   0.1170 
9     N1       5.5401   -4.9025    2.3279 N.am    1  LIG  -0.3250  -0.2370 
10    C9       4.7302   -4.4005    1.3115 C.2     1  LIG   0.5073   0.4490 
11    N2       4.4804   -3.1383    1.1469 N.2     1  LIG  -0.6294  -0.6290 
12    C10      5.0708   -2.2174    2.0210 C.ar    1  LIG   0.1859   0.1790 
13    C11      4.8311   -0.8526    1.8279 C.ar    1  LIG  -0.1248  -0.1500 
14    C12      5.4061    0.0970    2.6746 C.ar    1  LIG  -0.0950  -0.1500 
15    C13      6.2274   -0.3105    3.7239 C.ar    1  LIG  -0.1554  -0.1500 
16    C14      6.4743   -1.6671    3.9286 C.ar    1  LIG  -0.0598  -0.1500 
17    C15      5.8954   -2.6134    3.0753 C.ar    1  LIG  -0.1935   0.0862 
18    C16      6.1336   -4.0565    3.2797 C.2     1  LIG   0.7129   0.5438 
19    O1       6.7847   -4.4209    4.2560 O.2     1  LIG  -0.6097  -0.5700 
20    C17      4.1067   -5.3572    0.3175 C.3     1  LIG  -0.1398   0.0610 
21    H1       9.0850   -5.6176   -0.0899 H       1  LIG   0.0398   0.0000 
22    H2       8.1265   -7.1040   -0.1990 H       1  LIG   0.0343   0.0000 
23    H3       7.3178   -5.5325   -0.0970 H       1  LIG   0.0345   0.0000 
24    H4       9.0912   -6.7358    2.1014 H       1  LIG   0.0516   0.0000 
25    H5       8.2685   -5.2077    2.2134 H       1  LIG   0.0668   0.0000 
26    H6       8.0127   -8.8305    2.3750 H       1  LIG   0.1376   0.1500 
27    H7       6.0666  -10.1287    3.1348 H       1  LIG   0.1361   0.1500 
28    H8       3.8828   -9.0136    3.4979 H       1  LIG   0.1370   0.1500 
29    H9       3.6526   -6.5908    3.1192 H       1  LIG   0.1404   0.1500 
30    H10      4.1928   -0.5221    1.0120 H       1  LIG   0.1522   0.1500 
31    H11      5.2130    1.1540    2.5146 H       1  LIG   0.1362   0.1500 
32    H12      6.6743    0.4287    4.3827 H       1  LIG   0.1391   0.1500 
33    H13      7.1157   -1.9696    4.7521 H       1  LIG   0.1583   0.1500 
34    H14      4.8005   -6.1508    0.0307 H       1  LIG   0.0671   0.0000 
35    H15      3.2065   -5.7987    0.7537 H       1  LIG   0.0648   0.0000 
36    H16      3.8148   -4.8159   -0.5881 H       1  LIG   0.0787   0.0000 
@<TRIPOS>BOND
1     1     2     1
2     1     21    1
3     1     22    1
4     1     23    1
5     2     3     1
6     2     24    1
7     2     25    1
8     3     8     ar
9     3     4     ar
10    4     5     ar
11    4     26    1
12    5     6     ar
13    5     27    1
14    6     7     ar
15    6     28    1
16    7     8     ar
17    7     29    1
18    8     9     1
19    9     18    am
20    9     10    1
21    10    11    2
22    10    20    1
23    11    12    1
24    12    17    ar
25    12    13    ar
26    13    14    ar
27    13    30    1
28    14    15    ar
29    14    31    1
30    15    16    ar
31    15    32    1
32    16    17    ar
33    16    33    1
34    17    18    1
35    18    19    2
36    20    34    1
37    20    35    1
38    20    36    1
@<TRIPOS>SUBSTRUCTURE
1   LIG    1    
 
########## Number      : 302
########## Name        : ZINC00001379
########## Description : AM1BCC_CHARGES =  -0.0002 ORIGINAL_CHARGES =   0.0000

@<TRIPOS>MOLECULE
ZINC00001379
40    41    1     0     0    
SMALL
USER_CHARGES
****
****
@<TRIPOS>ATOM
1     C1       3.2940   -4.1427   -1.3082 C.3     1  LIG  -0.1206   0.0000 
2     C2       3.9908   -3.2464   -0.3003 C.3     1  LIG   0.0610   0.2556 
3     N1       3.9175   -3.7779    1.0454 N.pl3   1  LIG  -0.0018   0.3140 
4     C3       2.9500   -3.5242    1.9786 C.ar    1  LIG   0.4572   0.1054 
5     C4       3.2988   -4.2489    3.1125 C.ar    1  LIG  -0.3638   0.0000 
6     C5       4.4958   -4.8999    2.7287 C.2     1  LIG   0.3989   0.1388 
7     N2       4.8751   -4.6190    1.4790 N.2     1  LIG  -0.5232  -0.7068 
8     C6       2.4667   -4.1764    4.2555 C.ar    1  LIG   0.3047   0.1000 
9     C7       1.3270   -3.3486    4.1108 C.ar    1  LIG  -0.3532   0.0862 
10    C8       1.0896   -2.6845    2.9070 C.ar    1  LIG   0.4974   0.1600 
11    N3       1.8745   -2.7357    1.8112 N.ar    1  LIG  -0.6918  -0.5670 
12    C9       0.3226   -3.1488    5.1779 C.2     1  LIG   0.6675   0.6338 
13    O1      -0.8765   -3.0742    4.9659 O.2     1  LIG  -0.5429  -0.5700 
14    O2       0.9544   -3.0057    6.3693 O.3     1  LIG  -0.4674  -0.4300 
15    C10      0.1004   -2.7719    7.4989 C.3     1  LIG   0.1409   0.2800 
16    C11      0.9681   -2.7139    8.7403 C.3     1  LIG  -0.1018   0.0000 
17    N4       2.6775   -4.9154    5.4341 N.pl3   1  LIG  -0.4806  -0.5000 
18    N5       3.6595   -5.8144    5.6343 N.pl3   1  LIG  -0.4747  -0.5000 
19    C12      4.7873   -5.6883    6.4238 C.2     1  LIG   0.0309  -0.0382 
20    C13      5.6937   -6.6712    6.5548 C.2     1  LIG  -0.2720  -0.3000 
21    C14      4.9848   -4.3838    7.1512 C.3     1  LIG  -0.0731   0.1382 
22    H1       2.1966   -4.5835    6.2655 H       1  LIG   0.4223   0.4000 
23    H2       3.3692   -3.7153   -2.3127 H       1  LIG   0.0478   0.0000 
24    H3       3.7441   -5.1409   -1.3266 H       1  LIG   0.0517   0.0000 
25    H4       2.2326   -4.2599   -1.0651 H       1  LIG   0.0518   0.0000 
26    H5       5.0499   -3.1290   -0.5555 H       1  LIG   0.0695   0.0000 
27    H6       3.5397   -2.2484   -0.2950 H       1  LIG   0.0767   0.0000 
28    H7       5.1153   -5.5698    3.3072 H       1  LIG   0.0702   0.1500 
29    H8       0.2139   -2.0504    2.7846 H       1  LIG   0.0446   0.1500 
30    H9      -0.4277   -1.8217    7.3649 H       1  LIG   0.0589   0.0000 
31    H10     -0.6249   -3.5881    7.5880 H       1  LIG   0.0519   0.0000 
32    H11      0.3619   -2.5342    9.6324 H       1  LIG   0.0513   0.0000 
33    H12      1.5186   -3.6517    8.8692 H       1  LIG   0.0415   0.0000 
34    H13      1.7141   -1.9172    8.6524 H       1  LIG   0.0480   0.0000 
35    H14      3.5517   -6.7057    5.1567 H       1  LIG   0.4070   0.4000 
36    H15      6.5743   -6.5538    7.1777 H       1  LIG   0.1279   0.1500 
37    H16      5.5753   -7.6192    6.0399 H       1  LIG   0.1223   0.1500 
38    H17      4.1510   -4.1970    7.8364 H       1  LIG   0.0463   0.0000 
39    H18      5.9057   -4.3751    7.7442 H       1  LIG   0.0580   0.0000 
40    H19      5.0448   -3.5536    6.4392 H       1  LIG   0.0605   0.0000 
@<TRIPOS>BOND
1     1     2     1
2     1     23    1
3     1     24    1
4     1     25    1
5     2     3     1
6     2     26    1
7     2     27    1
8     3     7     1
9     3     4     1
10    4     11    ar
11    4     5     ar
12    5     6     1
13    5     8     ar
14    6     7     2
15    6     28    1
16    8     9     ar
17    8     17    1
18    9     10    ar
19    9     12    1
20    10    11    ar
21    10    29    1
22    12    13    2
23    12    14    1
24    14    15    1
25    15    16    1
26    15    30    1
27    15    31    1
28    16    32    1
29    16    33    1
30    16    34    1
31    17    22    1
32    17    18    1
33    18    19    1
34    18    35    1
35    19    20    2
36    19    21    1
37    20    36    1
38    20    37    1
39    21    39    1
40    21    40    1
41    21    38    1
@<TRIPOS>SUBSTRUCTURE
1   LIG    1    
 
########## Number      : 303
########## Name        : ZINC00001380
########## Description : AM1BCC_CHARGES =  -1.0000 ORIGINAL_CHARGES =  -1.0000

@<TRIPOS>MOLECULE
ZINC00001380
31    31    1     0     0    
SMALL
USER_CHARGES
****
****
@<TRIPOS>ATOM
1     C1       4.9622   -7.9913    3.2680 C.3     1  LIG  -0.1184   0.0000 
2     C2       4.6143   -6.5220    3.4355 C.3     1  LIG   0.2165   0.3557 
3     N1       4.0309   -5.9248    2.1969 N.pl3   1  LIG  -0.8066  -0.8494 
4     C3       2.5689   -6.1818    2.0350 C.3     1  LIG   0.2399   0.3557 
5     C4       1.7828   -5.0446    2.6641 C.3     1  LIG  -0.1130   0.0000 
6     S1       5.0141   -5.9034    0.7848 S.o2    1  LIG   1.5157   1.4470 
7     O1       6.3723   -5.5407    1.1426 O.2     1  LIG  -0.6756  -0.6500 
8     O2       4.7536   -7.1046    0.0146 O.2     1  LIG  -0.6790  -0.6500 
9     C5       4.3487   -4.5242   -0.1009 C.ar    1  LIG  -0.4429  -0.0090 
10    C6       4.5439   -3.2426    0.4105 C.ar    1  LIG  -0.0321  -0.1500 
11    C7       4.0323   -2.1427   -0.2807 C.ar    1  LIG  -0.1448  -0.1500 
12    C8       3.3304   -2.3100   -1.4863 C.ar    1  LIG  -0.0485  -0.1790 
13    C9       3.1578   -3.6132   -1.9836 C.ar    1  LIG  -0.1429  -0.1500 
14    C10      3.6663   -4.7192   -1.2983 C.ar    1  LIG  -0.0414  -0.1500 
15    C11      2.7763   -1.1188   -2.2301 C.2     1  LIG   0.9023   0.9790 
16    O3       2.1528   -1.3475   -3.3136 O.co2   1  LIG  -0.8139  -0.9000 
17    H1       5.3211   -8.4017    4.2172 H       1  LIG   0.0298   0.0000 
18    H2       4.0947   -8.5783    2.9518 H       1  LIG   0.0327   0.0000 
19    H3       5.7533   -8.1355    2.5261 H       1  LIG   0.0492   0.0000 
20    H4       3.9062   -6.4040    4.2635 H       1  LIG   0.0386   0.0000 
21    H5       5.5069   -5.9505    3.7133 H       1  LIG   0.0671   0.0000 
22    H6       2.3024   -6.2580    0.9763 H       1  LIG   0.0524   0.0000 
23    H7       2.2906   -7.1345    2.4971 H       1  LIG   0.0271   0.0000 
24    H8       0.7083   -5.2138    2.5435 H       1  LIG   0.0350   0.0000 
25    H9       1.9952   -4.9577    3.7344 H       1  LIG   0.0258   0.0000 
26    H10      2.0315   -4.0869    2.1961 H       1  LIG   0.0582   0.0000 
27    H11      5.0812   -3.0842    1.3413 H       1  LIG   0.1240   0.1500 
28    H12      4.1888   -1.1498    0.1351 H       1  LIG   0.1623   0.1500 
29    H13      2.6227   -3.7822   -2.9156 H       1  LIG   0.1626   0.1500 
30    H14      3.5142   -5.7110   -1.7130 H       1  LIG   0.1346   0.1500 
31    O4       2.9717    0.0287   -1.7200 O.co2   1  LIG  -0.8147  -0.9000 
@<TRIPOS>BOND
1     1     2     1
2     1     17    1
3     1     18    1
4     1     19    1
5     2     3     1
6     2     20    1
7     2     21    1
8     3     4     1
9     3     6     1
10    4     5     1
11    4     22    1
12    4     23    1
13    5     24    1
14    5     25    1
15    5     26    1
16    6     7     2
17    6     8     2
18    6     9     1
19    9     14    ar
20    9     10    ar
21    10    11    ar
22    10    27    1
23    11    12    ar
24    11    28    1
25    12    13    ar
26    12    15    1
27    13    14    ar
28    13    29    1
29    14    30    1
30    15    16    2
31    15    31    1
@<TRIPOS>SUBSTRUCTURE
1   LIG    1    
 
########## Number      : 304
########## Name        : ZINC00001382
########## Description : AM1BCC_CHARGES =  -0.9997 ORIGINAL_CHARGES =  -1.0000

@<TRIPOS>MOLECULE
ZINC00001382
30    30    1     0     0    
SMALL
USER_CHARGES
****
****
@<TRIPOS>ATOM
1     C1       2.7856   -9.4151   -1.1573 C.3     1  LIG  -0.0890   0.0000 
2     C2       4.2842   -9.4981   -0.9006 C.3     1  LIG  -0.0376   0.1382 
3     C3       4.8398   -8.2080   -0.3501 C.2     1  LIG  -0.1908  -0.1238 
4     C4       5.5978   -7.3932   -1.1005 C.2     1  LIG  -0.1533  -0.3000 
5     C5       4.5502   -7.9127    1.0916 C.2     1  LIG   0.5987   0.4694 
6     O1       4.0821   -8.7546    1.8513 O.2     1  LIG  -0.5293  -0.5700 
7     C6       4.8336   -6.5723    1.6316 C.ar    1  LIG  -0.2233   0.0862 
8     C7       5.9624   -6.4430    2.4427 C.ar    1  LIG  -0.0553  -0.1500 
9     C8       6.2843   -5.2029    2.9934 C.ar    1  LIG  -0.2239  -0.1500 
10    C9       5.4783   -4.0857    2.7472 C.ar    1  LIG   0.1973   0.0825 
11    C10      4.3290   -4.2272    1.9424 C.ar    1  LIG  -0.0414   0.1770 
12    C11      3.9979   -5.4748    1.3851 C.ar    1  LIG   0.0784   0.1770 
13    Cl1      2.5681   -5.6743    0.4220 Cl      1  LIG  -0.0937  -0.1770 
14    Cl2      3.3268   -2.8349    1.6526 Cl      1  LIG  -0.0537  -0.1770 
15    O2       5.7262   -2.8317    3.2472 O.3     1  LIG  -0.2619  -0.3625 
16    C12      6.8921   -2.6567    4.0506 C.3     1  LIG  -0.0191   0.1740 
17    C13      6.9362   -1.1840    4.4510 C.2     1  LIG   0.9304   0.9060 
18    O3       6.3689   -0.9083    5.5458 O.co2   1  LIG  -0.8097  -0.9000 
19    H1       2.4233  -10.3587   -1.5779 H       1  LIG   0.0252   0.0000 
20    H2       2.2287   -9.2244   -0.2342 H       1  LIG   0.0514   0.0000 
21    H3       2.5503   -8.6161   -1.8686 H       1  LIG   0.0319   0.0000 
22    H4       4.4969  -10.3221   -0.2091 H       1  LIG   0.0601   0.0000 
23    H5       4.7855   -9.7598   -1.8409 H       1  LIG   0.0332   0.0000 
24    H6       6.0371   -6.4747   -0.7289 H       1  LIG   0.1348   0.1500 
25    H7       5.8091   -7.6347   -2.1381 H       1  LIG   0.1116   0.1500 
26    H8       6.6010   -7.2990    2.6476 H       1  LIG   0.1335   0.1500 
27    H9       7.1739   -5.1436    3.6131 H       1  LIG   0.1556   0.1500 
28    H10      6.8365   -3.2751    4.9544 H       1  LIG   0.0273   0.0000 
29    H11      7.7972   -2.9010    3.4816 H       1  LIG   0.0250   0.0000 
30    O4       7.5450   -0.4266    3.6433 O.co2   1  LIG  -0.8121  -0.9000 
@<TRIPOS>BOND
1     1     2     1
2     1     19    1
3     1     20    1
4     1     21    1
5     2     3     1
6     2     22    1
7     2     23    1
8     3     4     2
9     3     5     1
10    4     24    1
11    4     25    1
12    5     6     2
13    5     7     1
14    7     12    ar
15    7     8     ar
16    8     9     ar
17    8     26    1
18    9     10    ar
19    9     27    1
20    10    11    ar
21    10    15    1
22    11    12    ar
23    11    14    1
24    12    13    1
25    15    16    1
26    16    17    1
27    16    28    1
28    16    29    1
29    17    18    2
30    17    30    1
@<TRIPOS>SUBSTRUCTURE
1   LIG    1    
 
########## Number      : 305
########## Name        : ZINC00001384
########## Description : AM1BCC_CHARGES =  -0.0002 ORIGINAL_CHARGES =  -0.0000

@<TRIPOS>MOLECULE
ZINC00001384
23    23    1     0     0    
SMALL
USER_CHARGES
****
****
@<TRIPOS>ATOM
1     C1       1.2963    1.1109    3.1009 C.3     1  LIG  -0.1014   0.0000 
2     C2       2.2529    0.2008    3.8504 C.3     1  LIG   0.1310   0.2800 
3     O1       2.3272   -1.0348    3.1417 O.3     1  LIG  -0.3206  -0.3625 
4     C3       3.1767   -1.9966    3.6225 C.ar    1  LIG   0.1718   0.0825 
5     C4       3.9165   -1.8785    4.8055 C.ar    1  LIG  -0.2103  -0.1500 
6     C5       4.7410   -2.9220    5.2355 C.ar    1  LIG  -0.0784  -0.1500 
7     C6       4.8377   -4.0939    4.4909 C.ar    1  LIG  -0.1718  -0.1500 
8     C7       4.1089   -4.2287    3.3116 C.ar    1  LIG  -0.0729  -0.1500 
9     C8       3.2763   -3.1866    2.8783 C.ar    1  LIG  -0.1711   0.0862 
10    C9       2.5326   -3.3475    1.6040 C.2     1  LIG   0.6839   0.5438 
11    O2       2.4963   -2.4451    0.7754 O.2     1  LIG  -0.5921  -0.5700 
12    N1       1.9028   -4.5597    1.4376 N.am    1  LIG  -0.6725  -0.8000 
13    H1       1.3751   -4.7456    0.5917 H       1  LIG   0.3110   0.3700 
14    H2       1.9089   -5.2897    2.1415 H       1  LIG   0.3042   0.3700 
15    H3       1.2016    2.0770    3.6047 H       1  LIG   0.0441   0.0000 
16    H4       1.6465    1.2786    2.0769 H       1  LIG   0.0606   0.0000 
17    H5       0.3050    0.6515    3.0273 H       1  LIG   0.0514   0.0000 
18    H6       3.2392    0.6770    3.8929 H       1  LIG   0.0443   0.0000 
19    H7       1.8680    0.0349    4.8631 H       1  LIG   0.0333   0.0000 
20    H8       3.8725   -0.9869    5.4234 H       1  LIG   0.1413   0.1500 
21    H9       5.3099   -2.8168    6.1554 H       1  LIG   0.1348   0.1500 
22    H10      5.4847   -4.8995    4.8261 H       1  LIG   0.1376   0.1500 
23    H11      4.2135   -5.1428    2.7328 H       1  LIG   0.1416   0.1500 
@<TRIPOS>BOND
1     1     2     1
2     1     15    1
3     1     16    1
4     1     17    1
5     2     3     1
6     2     18    1
7     2     19    1
8     3     4     1
9     4     9     ar
10    4     5     ar
11    5     6     ar
12    5     20    1
13    6     7     ar
14    6     21    1
15    7     8     ar
16    7     22    1
17    8     9     ar
18    8     23    1
19    9     10    1
20    10    11    2
21    10    12    am
22    12    13    1
23    12    14    1
@<TRIPOS>SUBSTRUCTURE
1   LIG    1    
 
########## Number      : 306
########## Name        : ZINC00001385
########## Description : AM1BCC_CHARGES =   0.0001 ORIGINAL_CHARGES =  -0.0000

@<TRIPOS>MOLECULE
ZINC00001385
25    25    1     0     0    
SMALL
USER_CHARGES
****
****
@<TRIPOS>ATOM
1     C1       4.3299   -5.5714   -2.4256 C.1     1  LIG  -0.1138  -0.1770 
2     C2       3.8859   -6.3504   -1.6267 C.1     1  LIG  -0.1655  -0.2000 
3     C3       3.3410   -7.3109   -0.6429 C.3     1  LIG   0.2785   0.4800 
4     C4       2.3514   -8.2892   -1.3079 C.3     1  LIG  -0.0995   0.0000 
5     C5       1.8671   -9.3721   -0.3428 C.3     1  LIG  -0.0757   0.0000 
6     C6       3.0350  -10.1389    0.2683 C.3     1  LIG  -0.0794   0.0000 
7     C7       4.0391   -9.2023    0.9309 C.3     1  LIG  -0.0761   0.0000 
8     C8       4.5135   -8.1106   -0.0310 C.3     1  LIG  -0.0672   0.0000 
9     O1       2.7182   -6.6109    0.4738 O.3     1  LIG  -0.4445  -0.4300 
10    C9       1.6815   -5.7513    0.2832 C.2     1  LIG   0.7413   0.7800 
11    O2       1.1715   -5.4589   -0.7909 O.2     1  LIG  -0.5837  -0.5700 
12    N1       1.2708   -5.2413    1.4855 N.am    1  LIG  -0.6471  -0.8000 
13    H1       0.5049   -4.5800    1.5373 H       1  LIG   0.3255   0.3700 
14    H2       1.7238   -5.5121    2.3505 H       1  LIG   0.3186   0.3700 
15    H3       4.7216   -4.8793   -3.1339 H       1  LIG   0.1657   0.1770 
16    H4       1.4749   -7.7621   -1.7008 H       1  LIG   0.0866   0.0000 
17    H5       2.8294   -8.7712   -2.1718 H       1  LIG   0.0552   0.0000 
18    H6       1.2664   -8.9187    0.4548 H       1  LIG   0.0486   0.0000 
19    H7       1.2108  -10.0697   -0.8755 H       1  LIG   0.0445   0.0000 
20    H8       2.6598  -10.8590    1.0042 H       1  LIG   0.0416   0.0000 
21    H9       3.5399  -10.7175   -0.5152 H       1  LIG   0.0386   0.0000 
22    H10      3.5833   -8.7442    1.8170 H       1  LIG   0.0522   0.0000 
23    H11      4.9019   -9.7793    1.2831 H       1  LIG   0.0411   0.0000 
24    H12      5.1131   -8.5729   -0.8267 H       1  LIG   0.0566   0.0000 
25    H13      5.1824   -7.4364    0.5203 H       1  LIG   0.0580   0.0000 
@<TRIPOS>BOND
1     1     2     3
2     1     15    1
3     2     3     1
4     3     8     1
5     3     4     1
6     3     9     1
7     4     5     1
8     4     16    1
9     4     17    1
10    5     6     1
11    5     18    1
12    5     19    1
13    6     7     1
14    6     20    1
15    6     21    1
16    7     8     1
17    7     22    1
18    7     23    1
19    8     24    1
20    8     25    1
21    9     10    1
22    10    11    2
23    10    12    am
24    12    13    1
25    12    14    1
@<TRIPOS>SUBSTRUCTURE
1   LIG    1    
 
########## Number      : 307
########## Name        : ZINC00001386
########## Description : AM1BCC_CHARGES =   0.0000 ORIGINAL_CHARGES =   0.0000

@<TRIPOS>MOLECULE
ZINC00001386
21    21    1     0     0    
SMALL
USER_CHARGES
****
****
@<TRIPOS>ATOM
1     C1       6.7960   -6.8517    0.0701 C.3     1  LIG  -0.0907   0.0000 
2     C2       6.1657   -7.9788   -0.7327 C.3     1  LIG  -0.1337   0.1435 
3     C3       4.6955   -7.7451   -0.9562 C.ar    1  LIG   0.4121   0.1665 
4     C4       4.2603   -6.9762   -2.0337 C.ar    1  LIG  -0.2338  -0.1500 
5     C5       2.8875   -6.7711   -2.1968 C.ar    1  LIG  -0.0829   0.0862 
6     C6       1.9960   -7.3326   -1.2836 C.ar    1  LIG  -0.2012  -0.1500 
7     C7       2.5234   -8.0751   -0.2409 C.ar    1  LIG   0.3966   0.1600 
8     N1       3.8442   -8.2916   -0.0545 N.ar    1  LIG  -0.6518  -0.6200 
9     C8       2.3976   -5.9576   -3.3353 C.2     1  LIG   0.4266   0.3538 
10    S1       1.1185   -6.3920   -4.3267 S.2     1  LIG  -0.4686  -0.3800 
11    N2       3.0738   -4.7793   -3.5524 N.pl3   1  LIG  -0.5925  -0.8000 
12    H1       2.8038   -4.1662   -4.3145 H       1  LIG   0.3315   0.3700 
13    H2       3.8377   -4.4615   -2.9650 H       1  LIG   0.3110   0.3700 
14    H3       7.8598   -7.0516    0.2330 H       1  LIG   0.0394   0.0000 
15    H4       6.7072   -5.8930   -0.4520 H       1  LIG   0.0294   0.0000 
16    H5       6.3159   -6.7462    1.0490 H       1  LIG   0.0489   0.0000 
17    H6       6.6772   -8.0877   -1.6963 H       1  LIG   0.0483   0.0000 
18    H7       6.3026   -8.9267   -0.1985 H       1  LIG   0.0711   0.0000 
19    H8       4.9794   -6.5615   -2.7337 H       1  LIG   0.1433   0.1500 
20    H9       0.9232   -7.1930   -1.3574 H       1  LIG   0.1679   0.1500 
21    H10      1.8740   -8.5290    0.5011 H       1  LIG   0.0291   0.1500 
@<TRIPOS>BOND
1     1     2     1
2     1     14    1
3     1     15    1
4     1     16    1
5     2     3     1
6     2     17    1
7     2     18    1
8     3     8     ar
9     3     4     ar
10    4     5     ar
11    4     19    1
12    5     6     ar
13    5     9     1
14    6     7     ar
15    6     20    1
16    7     8     ar
17    7     21    1
18    9     10    2
19    9     11    1
20    11    12    1
21    11    13    1
@<TRIPOS>SUBSTRUCTURE
1   LIG    1    
 
########## Number      : 308
########## Name        : ZINC00001392
########## Description : AM1BCC_CHARGES =   0.0000 ORIGINAL_CHARGES =   0.0000

@<TRIPOS>MOLECULE
ZINC00001392
22    22    1     0     0    
SMALL
USER_CHARGES
****
****
@<TRIPOS>ATOM
1     C1       6.4901   -8.9918   -1.5959 C.3     1  LIG  -0.1258   0.0000 
2     C2       6.3824   -7.6900   -0.8253 C.3     1  LIG   0.1401   0.2800 
3     O1       5.0137   -7.2504   -0.7920 O.3     1  LIG  -0.4441  -0.4300 
4     C3       4.2348   -7.7321    0.2093 C.2     1  LIG   0.6526   0.6338 
5     O2       4.5790   -8.5076    1.0873 O.2     1  LIG  -0.5497  -0.5700 
6     C4       2.8588   -7.1829    0.1023 C.ar    1  LIG  -0.1744   0.0862 
7     C5       2.4780   -6.3041   -0.9217 C.ar    1  LIG  -0.0287  -0.1500 
8     C6       1.1702   -5.8160   -0.9782 C.ar    1  LIG  -0.2354  -0.1500 
9     C7       0.2463   -6.2069   -0.0122 C.ar    1  LIG   0.1583   0.0825 
10    C8       0.6109   -7.0786    1.0091 C.ar    1  LIG  -0.1755  -0.1500 
11    C9       1.9172   -7.5673    1.0671 C.ar    1  LIG  -0.0395  -0.1500 
12    O3      -1.0399   -5.7473   -0.0398 O.3     1  LIG  -0.4907  -0.5325 
13    H1      -1.1412   -5.1540   -0.8036 H       1  LIG   0.4243   0.4500 
14    H2       7.5331   -9.3110   -1.6750 H       1  LIG   0.0458   0.0000 
15    H3       5.9173   -9.7857   -1.1060 H       1  LIG   0.0574   0.0000 
16    H4       6.0778   -8.8773   -2.6038 H       1  LIG   0.0437   0.0000 
17    H5       6.7870   -7.7903    0.1881 H       1  LIG   0.0629   0.0000 
18    H6       6.9587   -6.9090   -1.3315 H       1  LIG   0.0626   0.0000 
19    H7       3.1796   -5.9844   -1.6874 H       1  LIG   0.1568   0.1500 
20    H8       0.8886   -5.1358   -1.7769 H       1  LIG   0.1402   0.1500 
21    H9      -0.1133   -7.3808    1.7604 H       1  LIG   0.1581   0.1500 
22    H10      2.1849   -8.2475    1.8720 H       1  LIG   0.1610   0.1500 
@<TRIPOS>BOND
1     1     2     1
2     1     14    1
3     1     15    1
4     1     16    1
5     2     3     1
6     2     17    1
7     2     18    1
8     3     4     1
9     4     5     2
10    4     6     1
11    6     11    ar
12    6     7     ar
13    7     8     ar
14    7     19    1
15    8     9     ar
16    8     20    1
17    9     10    ar
18    9     12    1
19    10    11    ar
20    10    21    1
21    11    22    1
22    12    13    1
@<TRIPOS>SUBSTRUCTURE
1   LIG    1    
 
########## Number      : 309
########## Name        : ZINC00001398
########## Description : AM1BCC_CHARGES =   0.0001 ORIGINAL_CHARGES =   0.0000

@<TRIPOS>MOLECULE
ZINC00001398
51    54    1     0     0    
SMALL
USER_CHARGES
****
****
@<TRIPOS>ATOM
1     C1       2.6939    8.0764    5.4527 C.3     1  LIG  -0.0880   0.0000 
2     C2       1.2497    8.4186    5.9111 C.3     1  LIG  -0.0377   0.0000 
3     C3       0.5152    9.1021    4.7278 C.3     1  LIG  -0.0695   0.0000 
4     C4       0.3715    8.2191    3.4857 C.3     1  LIG  -0.0745   0.0000 
5     C5       0.1334    6.7406    3.8073 C.3     1  LIG   0.1455   0.2800 
6     C6      -0.4308    6.5739    5.2097 C.3     1  LIG  -0.1099   0.0000 
7     C7       0.4995    7.0769    6.3282 C.3     1  LIG  -0.0485   0.0000 
8     C8      -0.3589    7.2693    7.6147 C.3     1  LIG  -0.0733   0.0000 
9     C9       0.4235    7.7697    8.8369 C.3     1  LIG  -0.0719   0.0000 
10    C10      1.6418    8.5895    8.4037 C.3     1  LIG  -0.0444   0.0000 
11    C11      1.2760    9.3968    7.1399 C.3     1  LIG  -0.0541   0.0000 
12    C12      2.2324   10.6044    6.9876 C.3     1  LIG  -0.0717   0.0000 
13    C13      2.0811   11.6013    8.1661 C.3     1  LIG  -0.0603   0.0000 
14    C14      1.6517   10.9404    9.4946 C.3     1  LIG  -0.1461   0.0610 
15    C15      2.2183    9.5102    9.4935 C.3     1  LIG  -0.0573   0.0000 
16    C16      2.1796    9.1102   10.9691 C.3     1  LIG  -0.0729   0.0000 
17    C17      2.7065   10.3823   11.6732 C.3     1  LIG  -0.1888   0.0610 
18    C18      2.3200   11.5074   10.7171 C.2     1  LIG   0.5736   0.4480 
19    O1       2.5081   12.6948   10.9391 O.2     1  LIG  -0.5210  -0.5700 
20    C19      0.1278   11.0551    9.6921 C.3     1  LIG  -0.0827   0.0000 
21    O2      -0.7917    6.2192    2.8678 O.3     1  LIG  -0.6028  -0.6800 
22    H1      -0.9101    5.2743    3.0643 H       1  LIG   0.3970   0.4000 
23    H2       2.7142    7.2851    4.6992 H       1  LIG   0.0360   0.0000 
24    H3       3.1884    8.9475    5.0090 H       1  LIG   0.0376   0.0000 
25    H4       3.3196    7.7274    6.2789 H       1  LIG   0.0342   0.0000 
26    H5      -0.4897    9.3999    5.0569 H       1  LIG   0.0437   0.0000 
27    H6       1.0185   10.0294    4.4313 H       1  LIG   0.0440   0.0000 
28    H7      -0.4369    8.6189    2.8601 H       1  LIG   0.0660   0.0000 
29    H8       1.2764    8.3002    2.8697 H       1  LIG   0.0451   0.0000 
30    H9       1.0912    6.2065    3.7229 H       1  LIG   0.0313   0.0000 
31    H10     -1.4070    7.0768    5.2591 H       1  LIG   0.0558   0.0000 
32    H11     -0.6592    5.5145    5.3879 H       1  LIG   0.0358   0.0000 
33    H12      1.2423    6.3008    6.5871 H       1  LIG   0.0482   0.0000 
34    H13     -1.1652    7.9847    7.4029 H       1  LIG   0.0408   0.0000 
35    H14     -0.8563    6.3264    7.8747 H       1  LIG   0.0396   0.0000 
36    H15     -0.2575    8.3354    9.4796 H       1  LIG   0.0441   0.0000 
37    H16      0.7624    6.9108    9.4297 H       1  LIG   0.0384   0.0000 
38    H17      2.3997    7.8173    8.1831 H       1  LIG   0.0486   0.0000 
39    H18      0.2871    9.8688    7.2403 H       1  LIG   0.0533   0.0000 
40    H19      3.2740   10.2617    6.9571 H       1  LIG   0.0416   0.0000 
41    H20      2.0522   11.1442    6.0525 H       1  LIG   0.0448   0.0000 
42    H21      3.0342   12.1324    8.2860 H       1  LIG   0.0545   0.0000 
43    H22      1.3526   12.3721    7.8832 H       1  LIG   0.0489   0.0000 
44    H23      3.3045    9.5041    9.2619 H       1  LIG   0.0483   0.0000 
45    H24      1.1659    8.8801   11.3123 H       1  LIG   0.0496   0.0000 
46    H25      2.8123    8.2435   11.1844 H       1  LIG   0.0502   0.0000 
47    H26      2.2380   10.5207   12.6500 H       1  LIG   0.0747   0.0000 
48    H27      3.7963   10.3559   11.7628 H       1  LIG   0.0743   0.0000 
49    H28     -0.1594   12.1117    9.7660 H       1  LIG   0.0464   0.0000 
50    H29     -0.4720   10.6246    8.8921 H       1  LIG   0.0477   0.0000 
51    H30     -0.1961   10.5910   10.6301 H       1  LIG   0.0359   0.0000 
@<TRIPOS>BOND
1     1     2     1
2     1     23    1
3     1     24    1
4     1     25    1
5     2     7     1
6     2     11    1
7     2     3     1
8     3     4     1
9     3     26    1
10    3     27    1
11    4     5     1
12    4     28    1
13    4     29    1
14    5     6     1
15    5     21    1
16    5     30    1
17    6     7     1
18    6     31    1
19    6     32    1
20    7     8     1
21    7     33    1
22    8     9     1
23    8     34    1
24    8     35    1
25    9     10    1
26    9     36    1
27    9     37    1
28    10    15    1
29    10    11    1
30    10    38    1
31    11    12    1
32    11    39    1
33    12    13    1
34    12    40    1
35    12    41    1
36    13    14    1
37    13    42    1
38    13    43    1
39    14    18    1
40    14    15    1
41    14    20    1
42    15    16    1
43    15    44    1
44    16    17    1
45    16    45    1
46    16    46    1
47    17    18    1
48    17    47    1
49    17    48    1
50    18    19    2
51    20    49    1
52    20    50    1
53    20    51    1
54    21    22    1
@<TRIPOS>SUBSTRUCTURE
1   LIG    1    
 
########## Number      : 310
########## Name        : ZINC00001404
########## Description : AM1BCC_CHARGES =   0.0001 ORIGINAL_CHARGES =  -0.0000

@<TRIPOS>MOLECULE
ZINC00001404
36    37    1     0     0    
SMALL
USER_CHARGES
****
****
@<TRIPOS>ATOM
1     C1       7.0435  -10.4905    3.0055 C.3     1  LIG  -0.1015   0.0000 
2     C2       7.3841   -9.0811    2.5647 C.3     1  LIG   0.1378   0.2800 
3     O1       6.1640   -8.3303    2.4800 O.3     1  LIG  -0.4302  -0.4300 
4     C3       6.3041   -7.0312    2.1003 C.2     1  LIG   0.6486   0.7056 
5     O2       7.3498   -6.4631    1.8247 O.2     1  LIG  -0.5175  -0.5700 
6     C4       4.9564   -6.3924    2.0690 C.2     1  LIG  -0.0314   0.0794 
7     C5       4.7470   -5.1830    2.6495 C.2     1  LIG   0.1251  -0.0568 
8     C6       3.4005   -4.5570    2.5611 C.ar    1  LIG  -0.0903   0.0284 
9     C7       2.5297   -4.6096    3.6580 C.ar    1  LIG  -0.0994  -0.1500 
10    C8       1.2681   -4.0178    3.5811 C.ar    1  LIG  -0.1285  -0.1500 
11    C9       0.8701   -3.3687    2.4131 C.ar    1  LIG  -0.1149  -0.1500 
12    C10      1.7329   -3.3082    1.3197 C.ar    1  LIG  -0.1273  -0.1500 
13    C11      2.9955   -3.8983    1.3914 C.ar    1  LIG  -0.1051  -0.1500 
14    C12      5.8267   -4.4955    3.4037 C.ar    1  LIG  -0.0872   0.0284 
15    C13      6.2292   -4.9660    4.6622 C.ar    1  LIG  -0.1083  -0.1500 
16    C14      7.2348   -4.3064    5.3703 C.ar    1  LIG  -0.1297  -0.1500 
17    C15      7.8400   -3.1722    4.8312 C.ar    1  LIG  -0.1139  -0.1500 
18    C16      7.4398   -2.6939    3.5844 C.ar    1  LIG  -0.1274  -0.1500 
19    C17      6.4346   -3.3501    2.8722 C.ar    1  LIG  -0.0896  -0.1500 
20    C18      3.9151   -7.1179    1.4076 C.1     1  LIG   0.2014   0.4921 
21    N1       3.0752   -7.7101    0.8683 N.1     1  LIG  -0.3439  -0.5571 
22    H1       7.9456  -11.1036    3.0845 H       1  LIG   0.0480   0.0000 
23    H2       6.5375  -10.4789    3.9765 H       1  LIG   0.0497   0.0000 
24    H3       6.3567  -10.9614    2.2944 H       1  LIG   0.0521   0.0000 
25    H4       8.0525   -8.6122    3.2953 H       1  LIG   0.0496   0.0000 
26    H5       7.8689   -9.1034    1.5826 H       1  LIG   0.0575   0.0000 
27    H6       2.8234   -5.1115    4.5768 H       1  LIG   0.1388   0.1500 
28    H7       0.5953   -4.0628    4.4328 H       1  LIG   0.1372   0.1500 
29    H8      -0.1123   -2.9088    2.3555 H       1  LIG   0.1360   0.1500 
30    H9       1.4224   -2.8003    0.4110 H       1  LIG   0.1379   0.1500 
31    H10      3.6574   -3.8384    0.5306 H       1  LIG   0.1399   0.1500 
32    H11      5.7641   -5.8456    5.1009 H       1  LIG   0.1381   0.1500 
33    H12      7.5450   -4.6763    6.3434 H       1  LIG   0.1360   0.1500 
34    H13      8.6225   -2.6599    5.3836 H       1  LIG   0.1352   0.1500 
35    H14      7.9111   -1.8091    3.1661 H       1  LIG   0.1374   0.1500 
36    H15      6.1370   -2.9632    1.9007 H       1  LIG   0.1399   0.1500 
@<TRIPOS>BOND
1     1     2     1
2     1     22    1
3     1     23    1
4     1     24    1
5     2     3     1
6     2     25    1
7     2     26    1
8     3     4     1
9     4     5     2
10    4     6     1
11    6     7     2
12    6     20    1
13    7     8     1
14    7     14    1
15    8     13    ar
16    8     9     ar
17    9     10    ar
18    9     27    1
19    10    11    ar
20    10    28    1
21    11    12    ar
22    11    29    1
23    12    13    ar
24    12    30    1
25    13    31    1
26    14    19    ar
27    14    15    ar
28    15    16    ar
29    15    32    1
30    16    17    ar
31    16    33    1
32    17    18    ar
33    17    34    1
34    18    19    ar
35    18    35    1
36    19    36    1
37    20    21    3
@<TRIPOS>SUBSTRUCTURE
1   LIG    1    
 
########## Number      : 311
########## Name        : ZINC00001407
########## Description : AM1BCC_CHARGES =   1.0000 ORIGINAL_CHARGES =   1.0000

@<TRIPOS>MOLECULE
ZINC00001407
47    48    1     0     0    
SMALL
USER_CHARGES
****
****
@<TRIPOS>ATOM
1     C1       7.7033   -8.3592    0.8331 C.3     1  LIG  -0.1361   0.0000 
2     C2       6.5098   -9.2914    0.9485 C.3     1  LIG   0.1126   0.5030 
3     C3       4.1038   -9.4126    0.2101 C.3     1  LIG   0.1068   0.5030 
4     C4       4.2486   -9.6017   -1.2896 C.3     1  LIG  -0.1355   0.0000 
5     C5       4.7936   -7.7759    1.9937 C.3     1  LIG   0.0846   0.5030 
6     C6       3.9599   -6.5466    1.6443 C.3     1  LIG   0.1154   0.2800 
7     O1       3.6809   -5.8637    2.8681 O.3     1  LIG  -0.3259  -0.3625 
8     C7       3.1472   -4.6038    2.7751 C.ar    1  LIG   0.0803   0.0825 
9     C8       2.5447   -4.0882    1.6211 C.ar    1  LIG  -0.1730  -0.1500 
10    C9       2.0144   -2.7969    1.6177 C.ar    1  LIG  -0.1008  -0.1500 
11    C10      2.0765   -2.0124    2.7646 C.ar    1  LIG  -0.1232  -0.1500 
12    C11      2.6670   -2.5188    3.9207 C.ar    1  LIG  -0.1051  -0.1500 
13    C12      3.2046   -3.8167    3.9433 C.ar    1  LIG  -0.0672  -0.1435 
14    C13      3.8512   -4.3226    5.2169 C.3     1  LIG   0.0064   0.2870 
15    C14      5.3610   -4.3555    5.1690 C.ar    1  LIG  -0.0764  -0.1435 
16    C15      6.0458   -5.5791    5.1693 C.ar    1  LIG  -0.1452  -0.1500 
17    C16      7.4402   -5.6121    5.1154 C.ar    1  LIG  -0.1405  -0.1500 
18    C17      8.1649   -4.4232    5.0657 C.ar    1  LIG  -0.1279  -0.1500 
19    C18      7.4963   -3.2006    5.0717 C.ar    1  LIG  -0.1192  -0.1500 
20    C19      6.1018   -3.1656    5.1246 C.ar    1  LIG  -0.1222  -0.1500 
21    H1       8.6319   -8.9284    0.9430 H       1  LIG   0.1003   0.0000 
22    H2       7.7253   -7.8676   -0.1451 H       1  LIG   0.0661   0.0000 
23    H3       7.6982   -7.5836    1.6040 H       1  LIG   0.0720   0.0000 
24    H4       6.5771  -10.0612    0.1746 H       1  LIG   0.1010   0.0000 
25    H5       6.4550   -9.7788    1.9277 H       1  LIG   0.1047   0.0000 
26    H6       4.1461  -10.3609    0.7561 H       1  LIG   0.1047   0.0000 
27    H7       3.1471   -8.9267    0.4214 H       1  LIG   0.1067   0.0000 
28    H8       3.4232  -10.2126   -1.6692 H       1  LIG   0.1014   0.0000 
29    H9       4.2211   -8.6396   -1.8118 H       1  LIG   0.0663   0.0000 
30    H10      5.1821  -10.1061   -1.5537 H       1  LIG   0.0662   0.0000 
31    H11      4.2534   -8.4752    2.6424 H       1  LIG   0.1177   0.0000 
32    H12      5.6949   -7.4625    2.5298 H       1  LIG   0.1201   0.0000 
33    H13      4.5325   -5.8985    0.9692 H       1  LIG   0.0686   0.0000 
34    H14      3.0189   -6.8419    1.1693 H       1  LIG   0.0496   0.0000 
35    H15      2.4637   -4.6698    0.7081 H       1  LIG   0.1306   0.1500 
36    H16      1.5494   -2.4047    0.7174 H       1  LIG   0.1475   0.1500 
37    H17      1.6639   -1.0076    2.7600 H       1  LIG   0.1514   0.1500 
38    H18      2.7076   -1.8914    4.8081 H       1  LIG   0.1490   0.1500 
39    H19      3.5472   -3.7012    6.0702 H       1  LIG   0.0736   0.0000 
40    H20      3.4501   -5.3190    5.4450 H       1  LIG   0.0640   0.0000 
41    H21      5.4965   -6.5164    5.2087 H       1  LIG   0.1226   0.1500 
42    H22      7.9606   -6.5655    5.1139 H       1  LIG   0.1288   0.1500 
43    H23      9.2500   -4.4490    5.0249 H       1  LIG   0.1400   0.1500 
44    H24      8.0608   -2.2731    5.0359 H       1  LIG   0.1429   0.1500 
45    H25      5.5976   -2.2025    5.1306 H       1  LIG   0.1395   0.1500 
46    N1       5.2160   -8.5189    0.7372 N.4     1  LIG  -0.6870  -0.9590 
47    H26      5.4044   -7.8116    0.0138 H       1  LIG   0.4438   0.4500 
@<TRIPOS>BOND
1     1     2     1
2     1     21    1
3     1     22    1
4     1     23    1
5     2     24    1
6     2     25    1
7     2     46    1
8     3     4     1
9     3     26    1
10    3     27    1
11    3     46    1
12    4     28    1
13    4     29    1
14    4     30    1
15    5     6     1
16    5     31    1
17    5     32    1
18    5     46    1
19    6     7     1
20    6     33    1
21    6     34    1
22    7     8     1
23    8     13    ar
24    8     9     ar
25    9     10    ar
26    9     35    1
27    10    11    ar
28    10    36    1
29    11    12    ar
30    11    37    1
31    12    13    ar
32    12    38    1
33    13    14    1
34    14    15    1
35    14    39    1
36    14    40    1
37    15    20    ar
38    15    16    ar
39    16    17    ar
40    16    41    1
41    17    18    ar
42    17    42    1
43    18    19    ar
44    18    43    1
45    19    20    ar
46    19    44    1
47    20    45    1
48    46    47    1
@<TRIPOS>SUBSTRUCTURE
1   LIG    1    
 
########## Number      : 312
########## Name        : ZINC00001409
########## Description : AM1BCC_CHARGES =   0.0002 ORIGINAL_CHARGES =   0.0000

@<TRIPOS>MOLECULE
ZINC00001409
30    31    1     0     0    
SMALL
USER_CHARGES
****
****
@<TRIPOS>ATOM
1     C1       6.4463   -4.9670    2.2987 C.3     1  LIG  -0.0882   0.0000 
2     C2       5.1384   -5.6735    2.6222 C.3     1  LIG  -0.1399   0.1435 
3     C3       4.3471   -5.9867    1.3754 C.ar    1  LIG   0.5315   0.1665 
4     C4       3.3777   -5.1255    0.8532 C.ar    1  LIG  -0.4139   0.0000 
5     C5       2.7536   -5.5634   -0.3213 C.ar    1  LIG   0.7326   0.4100 
6     N1       3.0908   -6.7258   -0.9257 N.ar    1  LIG  -0.8245  -0.6200 
7     C6       4.0380   -7.4910   -0.3538 C.ar    1  LIG   0.9096   0.7200 
8     N2       4.6776   -7.1585    0.7809 N.ar    1  LIG  -0.7875  -0.6200 
9     N3       4.3739   -8.6822   -0.9672 N.pl3   1  LIG  -0.9299  -0.9000 
10    N4       1.7963   -4.7770   -0.9592 N.pl3   1  LIG  -0.9516  -0.9000 
11    C7       3.0289   -3.8453    1.4851 C.ar    1  LIG  -0.0031   0.0000 
12    C8       2.0648   -3.7886    2.5030 C.ar    1  LIG  -0.1207  -0.1500 
13    C9       1.7281   -2.5719    3.1001 C.ar    1  LIG  -0.1226  -0.1500 
14    C10      2.3484   -1.3914    2.6862 C.ar    1  LIG   0.0156   0.1770 
15    C11      3.3070   -1.4306    1.6696 C.ar    1  LIG   0.0135   0.1770 
16    C12      3.6417   -2.6512    1.0725 C.ar    1  LIG  -0.1070  -0.1500 
17    Cl1      4.1123   -0.0088    1.1071 Cl      1  LIG  -0.0688  -0.1770 
18    Cl2      1.8888    0.0806    3.4653 Cl      1  LIG  -0.0686  -0.1770 
19    H1       3.9078   -8.9510   -1.8212 H       1  LIG   0.4276   0.4000 
20    H2       5.0834   -9.2707   -0.5558 H       1  LIG   0.4293   0.4000 
21    H3       1.2057   -4.1709   -0.4052 H       1  LIG   0.4288   0.4000 
22    H4       1.4066   -5.1500   -1.8160 H       1  LIG   0.4314   0.4000 
23    H5       7.0087   -4.7745    3.2178 H       1  LIG   0.0384   0.0000 
24    H6       7.0734   -5.5771    1.6397 H       1  LIG   0.0474   0.0000 
25    H7       6.2734   -4.0078    1.8011 H       1  LIG   0.0370   0.0000 
26    H8       5.3621   -6.6148    3.1401 H       1  LIG   0.0678   0.0000 
27    H9       4.5518   -5.0803    3.3308 H       1  LIG   0.0569   0.0000 
28    H10      1.5683   -4.6962    2.8407 H       1  LIG   0.1470   0.1500 
29    H11      0.9790   -2.5603    3.8882 H       1  LIG   0.1521   0.1500 
30    H12      4.3871   -2.6787    0.2789 H       1  LIG   0.1600   0.1500 
@<TRIPOS>BOND
1     1     2     1
2     1     23    1
3     1     24    1
4     1     25    1
5     2     3     1
6     2     26    1
7     2     27    1
8     3     8     ar
9     3     4     ar
10    4     5     ar
11    4     11    1
12    5     6     ar
13    5     10    1
14    6     7     ar
15    7     8     ar
16    7     9     1
17    9     19    1
18    9     20    1
19    10    21    1
20    10    22    1
21    11    16    ar
22    11    12    ar
23    12    13    ar
24    12    28    1
25    13    14    ar
26    13    29    1
27    14    15    ar
28    14    18    1
29    15    16    ar
30    15    17    1
31    16    30    1
@<TRIPOS>SUBSTRUCTURE
1   LIG    1    
 
########## Number      : 313
########## Name        : ZINC00001410
########## Description : AM1BCC_CHARGES =   1.0000 ORIGINAL_CHARGES =   1.0000

@<TRIPOS>MOLECULE
ZINC00001410
40    41    1     0     0    
SMALL
USER_CHARGES
****
****
@<TRIPOS>ATOM
1     C1       6.9655   -7.5613    0.0897 C.3     1  LIG  -0.1356   0.0000 
2     C2       5.5532   -7.0080   -0.0934 C.3     1  LIG   0.1335   0.5030 
3     C3       5.3916   -5.6736    0.6295 C.3     1  LIG  -0.1091   0.0000 
4     C4       3.9524   -5.1549    0.5426 C.3     1  LIG   0.1489   0.2800 
5     C5       2.9789   -6.2031    1.0917 C.3     1  LIG  -0.1346   0.0000 
6     C6       3.1207   -7.5794    0.4228 C.3     1  LIG   0.1594   0.5030 
7     C7       2.3403   -8.6362    1.2167 C.3     1  LIG  -0.1342   0.0000 
8     C8       2.6425   -7.5859   -1.0342 C.3     1  LIG  -0.1250   0.0000 
9     O1       3.8586   -3.9663    1.3428 O.3     1  LIG  -0.4421  -0.4300 
10    C9       2.8778   -3.0839    1.0234 C.2     1  LIG   0.6644   0.6338 
11    O2       2.0639   -3.2024    0.1212 O.2     1  LIG  -0.5423  -0.5700 
12    C10      2.9152   -1.9169    1.9407 C.ar    1  LIG  -0.1547   0.0862 
13    C11      3.8631   -1.7970    2.9655 C.ar    1  LIG  -0.0685  -0.1500 
14    C12      3.8529   -0.6773    3.8006 C.ar    1  LIG  -0.1434  -0.1500 
15    C13      2.9013    0.3248    3.6191 C.ar    1  LIG  -0.0758  -0.1500 
16    C14      1.9564    0.2105    2.6014 C.ar    1  LIG  -0.1390  -0.1500 
17    C15      1.9612   -0.9061    1.7632 C.ar    1  LIG  -0.0624  -0.1500 
18    H1       7.0795   -8.5175   -0.4322 H       1  LIG   0.0656   0.0000 
19    H2       7.7078   -6.8667   -0.3176 H       1  LIG   0.1001   0.0000 
20    H3       7.2003   -7.7237    1.1474 H       1  LIG   0.0688   0.0000 
21    H4       5.3900   -6.8822   -1.1749 H       1  LIG   0.1082   0.0000 
22    H5       5.6842   -5.7662    1.6846 H       1  LIG   0.0845   0.0000 
23    H6       6.0721   -4.9252    0.2036 H       1  LIG   0.1081   0.0000 
24    H7       3.7422   -4.9367   -0.5158 H       1  LIG   0.0890   0.0000 
25    H8       3.1407   -6.2942    2.1754 H       1  LIG   0.0799   0.0000 
26    H9       1.9479   -5.8410    0.9893 H       1  LIG   0.1186   0.0000 
27    H10      2.4570   -9.6332    0.7765 H       1  LIG   0.0657   0.0000 
28    H11      2.6821   -8.6912    2.2566 H       1  LIG   0.0641   0.0000 
29    H12      1.2699   -8.4017    1.2319 H       1  LIG   0.1004   0.0000 
30    H13      2.7869   -8.5703   -1.4942 H       1  LIG   0.0614   0.0000 
31    H14      1.5736   -7.3498   -1.0898 H       1  LIG   0.1007   0.0000 
32    H15      3.1661   -6.8539   -1.6555 H       1  LIG   0.0678   0.0000 
33    H16      4.6192   -2.5584    3.1354 H       1  LIG   0.1450   0.1500 
34    H17      4.5894   -0.5871    4.5944 H       1  LIG   0.1487   0.1500 
35    H18      2.8963    1.1941    4.2704 H       1  LIG   0.1505   0.1500 
36    H19      1.2146    0.9915    2.4596 H       1  LIG   0.1534   0.1500 
37    H20      1.2136   -0.9719    0.9765 H       1  LIG   0.1600   0.1500 
38    N1       4.5785   -7.9842    0.4685 N.4     1  LIG  -0.7702  -0.9060 
39    H21      4.6891   -8.8852   -0.0184 H       1  LIG   0.4458   0.4500 
40    H22      4.8348   -8.1758    1.4481 H       1  LIG   0.4444   0.4500 
@<TRIPOS>BOND
1     1     2     1
2     1     18    1
3     1     19    1
4     1     20    1
5     2     3     1
6     2     21    1
7     2     38    1
8     3     4     1
9     3     22    1
10    3     23    1
11    4     5     1
12    4     9     1
13    4     24    1
14    5     6     1
15    5     25    1
16    5     26    1
17    6     7     1
18    6     8     1
19    6     38    1
20    7     27    1
21    7     28    1
22    7     29    1
23    8     30    1
24    8     31    1
25    8     32    1
26    9     10    1
27    10    11    2
28    10    12    1
29    12    17    ar
30    12    13    ar
31    13    14    ar
32    13    33    1
33    14    15    ar
34    14    34    1
35    15    16    ar
36    15    35    1
37    16    17    ar
38    16    36    1
39    17    37    1
40    38    39    1
41    38    40    1
@<TRIPOS>SUBSTRUCTURE
1   LIG    1    
 
########## Number      : 314
########## Name        : ZINC00001411
########## Description : AM1BCC_CHARGES =   0.0001 ORIGINAL_CHARGES =   0.0000

@<TRIPOS>MOLECULE
ZINC00001411
24    24    1     0     0    
SMALL
USER_CHARGES
****
****
@<TRIPOS>ATOM
1     C1       6.0477   -7.1599   -0.6963 C.3     1  LIG   0.1104   0.2800 
2     O1       5.1404   -8.2091   -1.0105 O.3     1  LIG  -0.3041  -0.3625 
3     C2       3.8028   -7.9369   -0.8875 C.ar    1  LIG   0.1027   0.0825 
4     C3       3.2629   -6.7114   -0.4816 C.ar    1  LIG  -0.1697  -0.1500 
5     C4       1.8711   -6.5331   -0.3902 C.ar    1  LIG  -0.0749  -0.1435 
6     C5       1.0205   -7.6024   -0.6984 C.ar    1  LIG  -0.1230  -0.1500 
7     C6       1.5474   -8.8269   -1.1041 C.ar    1  LIG  -0.1868  -0.1500 
8     C7       2.9301   -8.9867   -1.1972 C.ar    1  LIG   0.1004   0.0825 
9     O2       3.4510  -10.1901   -1.5957 O.3     1  LIG  -0.4759  -0.5325 
10    C8       1.3024   -5.2120    0.0685 C.3     1  LIG  -0.0056   0.2817 
11    C9       1.2227   -5.1116    1.5637 C.2     1  LIG  -0.1596  -0.2882 
12    C10      1.8924   -4.2088    2.2897 C.2     1  LIG  -0.2232  -0.3000 
13    H1       2.7192  -10.8056   -1.7702 H       1  LIG   0.4136   0.4500 
14    H2       7.0627   -7.5411   -0.8447 H       1  LIG   0.0682   0.0000 
15    H3       5.9121   -6.3060   -1.3683 H       1  LIG   0.0307   0.0000 
16    H4       5.9559   -6.8591    0.3525 H       1  LIG   0.0326   0.0000 
17    H5       3.9038   -5.8717   -0.2275 H       1  LIG   0.1414   0.1500 
18    H6      -0.0580   -7.4869   -0.6233 H       1  LIG   0.1342   0.1500 
19    H7       0.8731   -9.6446   -1.3418 H       1  LIG   0.1349   0.1500 
20    H8       1.9038   -4.3964   -0.3536 H       1  LIG   0.0511   0.0000 
21    H9       0.2961   -5.0792   -0.3485 H       1  LIG   0.0560   0.0000 
22    H10      0.5681   -5.8111    2.0781 H       1  LIG   0.1240   0.1500 
23    H11      1.7874   -4.1834    3.3691 H       1  LIG   0.1133   0.1500 
24    H12      2.5537   -3.4845    1.8268 H       1  LIG   0.1094   0.1500 
@<TRIPOS>BOND
1     1     2     1
2     1     14    1
3     1     15    1
4     1     16    1
5     2     3     1
6     3     8     ar
7     3     4     ar
8     4     5     ar
9     4     17    1
10    5     6     ar
11    5     10    1
12    6     7     ar
13    6     18    1
14    7     8     ar
15    7     19    1
16    8     9     1
17    9     13    1
18    10    11    1
19    10    20    1
20    10    21    1
21    11    12    2
22    11    22    1
23    12    23    1
24    12    24    1
@<TRIPOS>SUBSTRUCTURE
1   LIG    1    
 
########## Number      : 315
########## Name        : ZINC00001412
########## Description : AM1BCC_CHARGES =  -0.0002 ORIGINAL_CHARGES =   0.0000

@<TRIPOS>MOLECULE
ZINC00001412
41    43    1     0     0    
SMALL
USER_CHARGES
****
****
@<TRIPOS>ATOM
1     C1       3.8356    5.5602    8.9566 C.3     1  LIG   0.1085   0.2800 
2     O1       2.7323    4.8262    8.4399 O.3     1  LIG  -0.2992  -0.3625 
3     C2       1.8726    5.4944    7.6085 C.ar    1  LIG   0.1239   0.0825 
4     C3       1.9903    6.8345    7.2353 C.ar    1  LIG  -0.1852  -0.1500 
5     C4       1.0501    7.4176    6.3760 C.ar    1  LIG  -0.0946  -0.1500 
6     C5      -0.0246    6.6736    5.8673 C.ar    1  LIG  -0.0725   0.0284 
7     C6      -0.1455    5.3308    6.2503 C.ar    1  LIG  -0.1510  -0.1500 
8     C7       0.7965    4.7540    7.1079 C.ar    1  LIG   0.0961   0.0825 
9     O2       0.6705    3.4378    7.4702 O.3     1  LIG  -0.4732  -0.5325 
10    C8      -1.0300    7.2815    4.9734 C.2     1  LIG   0.1848   0.0483 
11    C9      -0.6809    8.0959    3.9675 C.2     1  LIG  -0.3070  -0.1356 
12    C10     -1.7276    8.6692    3.0984 C.2     1  LIG   0.5970   0.4694 
13    O3      -1.4219    9.4159    2.1790 O.2     1  LIG  -0.5208  -0.5700 
14    C11     -3.1225    8.2902    3.4097 C.ar    1  LIG  -0.2698   0.0862 
15    C12     -3.3456    7.4250    4.4820 C.ar    1  LIG   0.2065   0.0825 
16    O4      -2.3335    6.9154    5.2591 O.3     1  LIG  -0.2260  -0.1592 
17    C13     -4.6431    7.0174    4.8191 C.ar    1  LIG  -0.2747  -0.1500 
18    C14     -5.7405    7.4804    4.0894 C.ar    1  LIG   0.2018   0.0825 
19    C15     -5.5148    8.3721    3.0308 C.ar    1  LIG  -0.0733   0.0825 
20    C16     -4.2147    8.7563    2.6749 C.ar    1  LIG   0.2359   0.0825 
21    O5      -4.0291    9.5871    1.6039 O.3     1  LIG  -0.4479  -0.5325 
22    O6      -6.5635    8.8335    2.2700 O.3     1  LIG  -0.3298  -0.3625 
23    C17     -7.1668    9.9684    2.8953 C.3     1  LIG   0.1085   0.2800 
24    O7      -7.0442    7.1257    4.3160 O.3     1  LIG  -0.3120  -0.3625 
25    C18     -7.2964    6.2237    5.3865 C.3     1  LIG   0.1096   0.2800 
26    H1      -0.1202    3.0681    7.0425 H       1  LIG   0.4174   0.4500 
27    H2      -4.8975    9.7507    1.1959 H       1  LIG   0.4397   0.4500 
28    H3       4.4175    4.8851    9.5914 H       1  LIG   0.0730   0.0000 
29    H4       4.4915    5.9069    8.1512 H       1  LIG   0.0350   0.0000 
30    H5       3.4975    6.3942    9.5805 H       1  LIG   0.0346   0.0000 
31    H6       2.8001    7.4614    7.5960 H       1  LIG   0.1464   0.1500 
32    H7       1.1693    8.4686    6.1204 H       1  LIG   0.1459   0.1500 
33    H8      -0.9696    4.7283    5.8745 H       1  LIG   0.1505   0.1500 
34    H9       0.3461    8.3595    3.7421 H       1  LIG   0.1695   0.1500 
35    H10     -4.7639    6.3329    5.6539 H       1  LIG   0.1616   0.1500 
36    H11     -7.9434   10.3457    2.2234 H       1  LIG   0.0631   0.0000 
37    H12     -7.6427    9.6967    3.8432 H       1  LIG   0.0471   0.0000 
38    H13     -6.4367   10.7701    3.0532 H       1  LIG   0.0261   0.0000 
39    H14     -8.3761    6.0507    5.4294 H       1  LIG   0.0729   0.0000 
40    H15     -6.8117    5.2576    5.2113 H       1  LIG   0.0427   0.0000 
41    H16     -6.9904    6.6540    6.3457 H       1  LIG   0.0387   0.0000 
@<TRIPOS>BOND
1     1     2     1
2     1     28    1
3     1     29    1
4     1     30    1
5     2     3     1
6     3     8     ar
7     3     4     ar
8     4     5     ar
9     4     31    1
10    5     6     ar
11    5     32    1
12    6     7     ar
13    6     10    1
14    7     8     ar
15    7     33    1
16    8     9     1
17    9     26    1
18    10    16    1
19    10    11    2
20    11    12    1
21    11    34    1
22    12    13    2
23    12    14    1
24    14    20    ar
25    14    15    ar
26    15    16    1
27    15    17    ar
28    17    18    ar
29    17    35    1
30    18    19    ar
31    18    24    1
32    19    20    ar
33    19    22    1
34    20    21    1
35    21    27    1
36    22    23    1
37    23    36    1
38    23    37    1
39    23    38    1
40    24    25    1
41    25    39    1
42    25    40    1
43    25    41    1
@<TRIPOS>SUBSTRUCTURE
1   LIG    1    
 
########## Number      : 316
########## Name        : ZINC00001416
########## Description : AM1BCC_CHARGES =   0.0003 ORIGINAL_CHARGES =   0.0000

@<TRIPOS>MOLECULE
ZINC00001416
33    35    1     0     0    
SMALL
USER_CHARGES
****
****
@<TRIPOS>ATOM
1     C1       9.2057    4.4941    3.3155 C.ar    1  LIG  -0.1236  -0.1500 
2     C2       7.8749    4.7484    3.6310 C.ar    1  LIG  -0.1312  -0.1500 
3     C3       6.8525    4.0245    3.0106 C.ar    1  LIG  -0.1145  -0.1500 
4     C4       7.1435    3.0336    2.0581 C.ar    1  LIG  -0.0441   0.0284 
5     C5       8.5031    2.7618    1.7724 C.ar    1  LIG  -0.0679  -0.1435 
6     C6       9.5209    3.5051    2.3881 C.ar    1  LIG  -0.1254  -0.1500 
7     C7       8.8642    1.6942    0.7654 C.3     1  LIG  -0.0615   0.1435 
8     C8       7.8626    0.5457    0.8290 C.3     1  LIG   0.1879   0.3691 
9     N1       6.5181    1.0713    0.7513 N.pl3   1  LIG  -0.7113  -0.8691 
10    C9       6.0896    2.2390    1.3577 C.2     1  LIG   0.1121   0.0716 
11    C10      4.8144    2.6611    1.2846 C.2     1  LIG  -0.0853  -0.0733 
12    O1       3.8363    1.9349    0.6347 O.3     1  LIG  -0.2513  -0.1592 
13    C11      2.6162    2.5421    0.4590 C.ar    1  LIG   0.1074   0.0825 
14    C12      2.4872    3.7601   -0.2146 C.ar    1  LIG  -0.1640  -0.1500 
15    C13      1.2212    4.3156   -0.4027 C.ar    1  LIG  -0.1035  -0.1500 
16    C14      0.0933    3.6433    0.0705 C.ar    1  LIG  -0.0024   0.1770 
17    C15      0.2197    2.4169    0.7247 C.ar    1  LIG  -0.1058  -0.1500 
18    C16      1.4854    1.8612    0.9127 C.ar    1  LIG  -0.1319  -0.1500 
19    Cl1     -1.4693    4.3288   -0.1630 Cl      1  LIG  -0.0940  -0.1770 
20    H1       9.9972    5.0623    3.7955 H       1  LIG   0.1330   0.1500 
21    H2       7.6281    5.5132    4.3624 H       1  LIG   0.1335   0.1500 
22    H3       5.8298    4.2521    3.2984 H       1  LIG   0.1357   0.1500 
23    H4      10.5640    3.3112    2.1515 H       1  LIG   0.1329   0.1500 
24    H5       8.8638    2.1481   -0.2334 H       1  LIG   0.0569   0.0000 
25    H6       9.8701    1.3030    0.9562 H       1  LIG   0.0586   0.0000 
26    H7       8.0384   -0.1560    0.0070 H       1  LIG   0.0416   0.0000 
27    H8       7.9763   -0.0096    1.7678 H       1  LIG   0.0565   0.0000 
28    H9       5.8105    0.5194    0.2760 H       1  LIG   0.4014   0.4000 
29    H10      4.4499    3.5784    1.7247 H       1  LIG   0.1547   0.1500 
30    H11      3.3609    4.2777   -0.6007 H       1  LIG   0.1492   0.1500 
31    H12      1.1268    5.2654   -0.9221 H       1  LIG   0.1492   0.1500 
32    H13     -0.6560    1.8857    1.0877 H       1  LIG   0.1505   0.1500 
33    H14      1.5849    0.9032    1.4156 H       1  LIG   0.1569   0.1500 
@<TRIPOS>BOND
1     1     6     ar
2     1     2     ar
3     1     20    1
4     2     3     ar
5     2     21    1
6     3     4     ar
7     3     22    1
8     4     10    1
9     4     5     ar
10    5     6     ar
11    5     7     1
12    6     23    1
13    7     8     1
14    7     24    1
15    7     25    1
16    8     26    1
17    8     27    1
18    8     9     1
19    9     10    1
20    9     28    1
21    10    11    2
22    11    12    1
23    11    29    1
24    12    13    1
25    13    18    ar
26    13    14    ar
27    14    15    ar
28    14    30    1
29    15    16    ar
30    15    31    1
31    16    17    ar
32    16    19    1
33    17    18    ar
34    17    32    1
35    18    33    1
@<TRIPOS>SUBSTRUCTURE
1   LIG    1    
 
########## Number      : 317
########## Name        : ZINC00001418
########## Description : AM1BCC_CHARGES =   1.0000 ORIGINAL_CHARGES =   1.0000

@<TRIPOS>MOLECULE
ZINC00001418
42    44    1     0     0    
SMALL
USER_CHARGES
****
****
@<TRIPOS>ATOM
1     C1       6.1345  -11.4243    0.7837 C.3     1  LIG   0.0821   0.5030 
2     C2       5.0117   -9.6707   -0.5639 C.3     1  LIG   0.0797   0.5030 
3     C3       5.2344   -9.4066    1.9404 C.3     1  LIG   0.1108   0.5030 
4     C4       5.3166   -7.8837    1.9745 C.3     1  LIG  -0.1420   0.0000 
5     C5       4.8283   -7.3442    3.3227 C.3     1  LIG   0.0989   0.3001 
6     N1       4.9165   -5.8796    3.3921 N.am    1  LIG  -0.3644  -0.4771 
7     C6       3.8494   -5.0539    2.9023 C.ar    1  LIG   0.0798   0.1170 
8     C7       2.6955   -5.6284    2.3254 C.ar    1  LIG  -0.1935  -0.1500 
9     C8       1.6488   -4.8423    1.8516 C.ar    1  LIG  -0.0849  -0.1500 
10    C9       1.7357   -3.4666    1.9440 C.ar    1  LIG  -0.1474  -0.1500 
11    C10      2.8723   -2.8834    2.5063 C.ar    1  LIG  -0.0742  -0.1500 
12    C11      3.9627   -3.6466    2.9989 C.ar    1  LIG  -0.0728   0.0000 
13    C12      5.1275   -3.0491    3.5661 C.ar    1  LIG   0.0215   0.0000 
14    C13      5.3191   -1.6491    3.7115 C.ar    1  LIG  -0.1339  -0.1500 
15    C14      6.4786   -1.0997    4.2702 C.ar    1  LIG  -0.0841  -0.1500 
16    C15      7.4966   -1.9309    4.7069 C.ar    1  LIG  -0.1360  -0.1500 
17    C16      7.3506   -3.3069    4.5834 C.ar    1  LIG  -0.0630  -0.1500 
18    C17      6.1813   -3.8560    4.0207 C.ar    1  LIG  -0.1535   0.0862 
19    C18      6.0923   -5.3314    3.9197 C.2     1  LIG   0.7214   0.5438 
20    O1       7.0494   -6.0064    4.2991 O.2     1  LIG  -0.6475  -0.5700 
21    H1       6.8128  -11.5665    1.6292 H       1  LIG   0.1084   0.0000 
22    H2       5.1922  -11.9560    0.9406 H       1  LIG   0.1054   0.0000 
23    H3       6.6222  -11.7510   -0.1386 H       1  LIG   0.1057   0.0000 
24    H4       4.9537   -8.5900   -0.7062 H       1  LIG   0.1088   0.0000 
25    H5       5.5154  -10.1205   -1.4240 H       1  LIG   0.1048   0.0000 
26    H6       4.0190  -10.1060   -0.4225 H       1  LIG   0.1045   0.0000 
27    H7       4.2018   -9.7674    2.0018 H       1  LIG   0.1010   0.0000 
28    H8       5.8118   -9.8292    2.7702 H       1  LIG   0.1089   0.0000 
29    H9       6.3514   -7.5608    1.8049 H       1  LIG   0.0846   0.0000 
30    H10      4.7179   -7.4490    1.1679 H       1  LIG   0.0713   0.0000 
31    H11      3.8144   -7.6803    3.5627 H       1  LIG   0.0660   0.0000 
32    H12      5.4580   -7.7688    4.1151 H       1  LIG   0.0916   0.0000 
33    H13      2.5771   -6.7018    2.2188 H       1  LIG   0.1194   0.1500 
34    H14      0.7715   -5.3076    1.4121 H       1  LIG   0.1415   0.1500 
35    H15      0.9267   -2.8407    1.5791 H       1  LIG   0.1509   0.1500 
36    H16      2.8797   -1.7972    2.5451 H       1  LIG   0.1479   0.1500 
37    H17      4.5609   -0.9394    3.3906 H       1  LIG   0.1444   0.1500 
38    H18      6.5782   -0.0216    4.3605 H       1  LIG   0.1483   0.1500 
39    H19      8.3992   -1.5122    5.1415 H       1  LIG   0.1517   0.1500 
40    H20      8.1595   -3.9445    4.9323 H       1  LIG   0.1628   0.1500 
41    N2       5.8393   -9.9513    0.6621 N.4     1  LIG  -0.6801  -0.9590 
42    H21      6.7475   -9.4860    0.5279 H       1  LIG   0.4552   0.4500 
@<TRIPOS>BOND
1     1     21    1
2     1     22    1
3     1     23    1
4     1     41    1
5     2     24    1
6     2     25    1
7     2     26    1
8     2     41    1
9     3     4     1
10    3     27    1
11    3     28    1
12    3     41    1
13    4     5     1
14    4     29    1
15    4     30    1
16    5     6     1
17    5     31    1
18    5     32    1
19    6     19    am
20    6     7     1
21    7     12    ar
22    7     8     ar
23    8     9     ar
24    8     33    1
25    9     10    ar
26    9     34    1
27    10    11    ar
28    10    35    1
29    11    12    ar
30    11    36    1
31    12    13    1
32    13    18    ar
33    13    14    ar
34    14    15    ar
35    14    37    1
36    15    16    ar
37    15    38    1
38    16    17    ar
39    16    39    1
40    17    18    ar
41    17    40    1
42    18    19    1
43    19    20    2
44    41    42    1
@<TRIPOS>SUBSTRUCTURE
1   LIG    1    
 
########## Number      : 318
########## Name        : ZINC00001423
########## Description : AM1BCC_CHARGES =  -0.0002 ORIGINAL_CHARGES =   0.0000

@<TRIPOS>MOLECULE
ZINC00001423
18    19    1     0     0    
SMALL
USER_CHARGES
****
****
@<TRIPOS>ATOM
1     C1       4.5135   -9.1793    0.8178 C.ar    1  LIG  -0.1750  -0.1500 
2     C2       3.4188   -9.7604    1.4499 C.ar    1  LIG  -0.0640  -0.1500 
3     C3       2.1469   -9.2273    1.2602 C.ar    1  LIG  -0.2276  -0.1500 
4     C4       1.9738   -8.1101    0.4353 C.ar    1  LIG   0.1768   0.0825 
5     C5       3.0639   -7.5061   -0.2136 C.ar    1  LIG  -0.1731   0.0530 
6     C6       4.3378   -8.0632   -0.0058 C.ar    1  LIG  -0.0606  -0.1500 
7     C7       2.8942   -6.3400   -1.0765 C.2     1  LIG   0.5322   0.4251 
8     N1       1.8116   -5.6629   -1.4088 N.2     1  LIG  -0.3239  -0.3381 
9     N2       2.2187   -4.6494   -2.2538 N.2     1  LIG  -0.3495  -0.3381 
10    C8       3.5167   -4.7827   -2.3744 C.2     1  LIG   0.4386   0.3281 
11    O1       4.0248   -5.8247   -1.6644 O.3     1  LIG  -0.4056  -0.2800 
12    O2       0.7108   -7.6052    0.2656 O.3     1  LIG  -0.4622  -0.5325 
13    H1       0.0827   -8.1386    0.7813 H       1  LIG   0.4239   0.4500 
14    H2       5.5075   -9.5930    0.9639 H       1  LIG   0.1421   0.1500 
15    H3       3.5563  -10.6274    2.0896 H       1  LIG   0.1391   0.1500 
16    H4       1.2989   -9.6889    1.7586 H       1  LIG   0.1406   0.1500 
17    H5       5.2194   -7.6386   -0.4818 H       1  LIG   0.1521   0.1500 
18    H6       4.2108   -4.1887   -2.9478 H       1  LIG   0.0959   0.1500 
@<TRIPOS>BOND
1     1     6     ar
2     1     2     ar
3     1     14    1
4     2     3     ar
5     2     15    1
6     3     4     ar
7     3     16    1
8     4     5     ar
9     4     12    1
10    5     6     ar
11    5     7     1
12    6     17    1
13    7     11    1
14    7     8     2
15    8     9     1
16    9     10    2
17    10    11    1
18    10    18    1
19    12    13    1
@<TRIPOS>SUBSTRUCTURE
1   LIG    1    
 
########## Number      : 319
########## Name        : ZINC00001424
########## Description : AM1BCC_CHARGES =   0.0001 ORIGINAL_CHARGES =   0.0000

@<TRIPOS>MOLECULE
ZINC00001424
19    20    1     0     0    
SMALL
USER_CHARGES
****
****
@<TRIPOS>ATOM
1     C1       4.9953   -9.7797   -0.3916 C.ar    1  LIG  -0.1227  -0.1500 
2     C2       5.1921   -8.7406   -1.2967 C.ar    1  LIG  -0.1203  -0.1500 
3     C3       4.2783   -7.6862   -1.3635 C.ar    1  LIG  -0.1111  -0.1500 
4     C4       3.1633   -7.6575   -0.5097 C.ar    1  LIG   0.0055  -0.0230 
5     C5       2.9603   -8.7170    0.3812 C.ar    1  LIG  -0.1402  -0.1500 
6     C6       3.8786   -9.7701    0.4408 C.ar    1  LIG  -0.1205  -0.1500 
7     N1       2.2503   -6.5764   -0.6065 N.pl3   1  LIG  -0.0413   0.5926 
8     C7       1.2522   -6.1119    0.2482 C.2     1  LIG   0.6022   0.2705 
9     N2       0.5597   -5.1903   -0.3908 N.2     1  LIG  -0.4187  -0.3381 
10    N3       1.1794   -4.9984   -1.5911 N.2     1  LIG  -0.0319   0.0000 
11    N4       2.2301   -5.7910   -1.7148 N.2     1  LIG  -0.1893  -0.4180 
12    N5       1.1010   -6.4981    1.5273 N.pl3   1  LIG  -0.8938  -0.8840 
13    H1       1.7735   -7.0611    2.0347 H       1  LIG   0.4124   0.4000 
14    H2       0.3538   -6.1118    2.0962 H       1  LIG   0.4302   0.4000 
15    H3       5.7043  -10.6009   -0.3423 H       1  LIG   0.1407   0.1500 
16    H4       6.0580   -8.7494   -1.9529 H       1  LIG   0.1432   0.1500 
17    H5       4.4715   -6.8904   -2.0791 H       1  LIG   0.1592   0.1500 
18    H6       2.0793   -8.7931    1.0084 H       1  LIG   0.1550   0.1500 
19    H7       3.7125  -10.5930    1.1310 H       1  LIG   0.1415   0.1500 
@<TRIPOS>BOND
1     1     6     ar
2     1     2     ar
3     1     15    1
4     2     3     ar
5     2     16    1
6     3     4     ar
7     3     17    1
8     4     5     ar
9     4     7     1
10    5     6     ar
11    5     18    1
12    6     19    1
13    7     11    1
14    7     8     1
15    8     9     2
16    8     12    1
17    9     10    1
18    10    11    2
19    12    13    1
20    12    14    1
@<TRIPOS>SUBSTRUCTURE
1   LIG    1    
 
########## Number      : 320
########## Name        : ZINC00001425
########## Description : AM1BCC_CHARGES =   0.9996 ORIGINAL_CHARGES =   1.0000

@<TRIPOS>MOLECULE
ZINC00001425
42    43    1     0     0    
SMALL
USER_CHARGES
****
****
@<TRIPOS>ATOM
1     C1       5.8762   -9.1338    3.6554 C.3     1  LIG   0.0830   0.5030 
2     C2       4.3699   -9.3516    1.6974 C.3     1  LIG   0.0820   0.5030 
3     C3       5.4425   -7.1274    2.2377 C.3     1  LIG   0.0422   0.5030 
4     C4       5.5449   -6.5915    0.8058 C.3     1  LIG   0.2060   0.3691 
5     N1       5.5253   -5.1165    0.7858 N.pl3   1  LIG  -0.6476  -0.8382 
6     C5       4.2768   -4.4916    0.3157 C.3     1  LIG   0.2377   0.5126 
7     C6       3.1582   -4.6226    1.3246 C.ar    1  LIG  -0.1480  -0.1435 
8     C7       2.0783   -5.4829    1.0733 C.ar    1  LIG  -0.1368  -0.1500 
9     C8       1.0478   -5.6218    2.0046 C.ar    1  LIG  -0.1324  -0.1500 
10    C9       1.0829   -4.9017    3.1963 C.ar    1  LIG  -0.1158  -0.1500 
11    C10      2.1474   -4.0416    3.4567 C.ar    1  LIG  -0.1266  -0.1500 
12    C11      3.1792   -3.9016    2.5264 C.ar    1  LIG  -0.1254  -0.1500 
13    C12      6.6487   -4.3672    1.1427 C.ar    1  LIG   0.1345   0.1000 
14    C13      6.6059   -2.9695    1.3213 C.ar    1  LIG  -0.1762  -0.1500 
15    C14      7.7349   -2.2195    1.6806 C.ar    1  LIG  -0.0871  -0.1500 
16    C15      8.9572   -2.8448    1.8755 C.ar    1  LIG  -0.1432  -0.1500 
17    C16      9.0457   -4.2188    1.7117 C.ar    1  LIG  -0.0939  -0.1500 
18    C17      7.9118   -4.9610    1.3530 C.ar    1  LIG  -0.1987  -0.1500 
19    H1       6.8041   -8.6603    3.9872 H       1  LIG   0.1066   0.0000 
20    H2       5.0421   -8.8687    4.3106 H       1  LIG   0.1075   0.0000 
21    H3       6.0120  -10.2176    3.6094 H       1  LIG   0.1027   0.0000 
22    H4       4.2746   -9.0877    0.6425 H       1  LIG   0.1045   0.0000 
23    H5       4.5405  -10.4280    1.7853 H       1  LIG   0.1019   0.0000 
24    H6       3.4844   -9.0498    2.2630 H       1  LIG   0.1081   0.0000 
25    H7       4.4912   -6.8697    2.7144 H       1  LIG   0.1189   0.0000 
26    H8       6.2536   -6.7331    2.8582 H       1  LIG   0.1146   0.0000 
27    H9       6.4298   -6.9810    0.2896 H       1  LIG   0.0626   0.0000 
28    H10      4.6990   -6.9687    0.2196 H       1  LIG   0.0679   0.0000 
29    H11      4.3857   -3.4416    0.0261 H       1  LIG   0.0933   0.0000 
30    H12      3.9805   -4.9823   -0.6218 H       1  LIG   0.0651   0.0000 
31    H13      2.0329   -6.0549    0.1497 H       1  LIG   0.1325   0.1500 
32    H14      0.2173   -6.2913    1.7992 H       1  LIG   0.1446   0.1500 
33    H15      0.2806   -5.0089    3.9207 H       1  LIG   0.1487   0.1500 
34    H16      2.1752   -3.4783    4.3853 H       1  LIG   0.1479   0.1500 
35    H17      3.9990   -3.2265    2.7531 H       1  LIG   0.1439   0.1500 
36    H18      5.6837   -2.4086    1.2030 H       1  LIG   0.1424   0.1500 
37    H19      7.6488   -1.1439    1.8092 H       1  LIG   0.1485   0.1500 
38    H20      9.8327   -2.2664    2.1534 H       1  LIG   0.1510   0.1500 
39    H21      9.9966   -4.7233    1.8598 H       1  LIG   0.1411   0.1500 
40    H22      8.0606   -6.0309    1.2372 H       1  LIG   0.1141   0.1500 
41    N2       5.5694   -8.6399    2.2647 N.4     1  LIG  -0.6703  -0.9590 
42    H23      6.3795   -8.8948    1.6836 H       1  LIG   0.4478   0.4500 
@<TRIPOS>BOND
1     1     19    1
2     1     20    1
3     1     21    1
4     1     41    1
5     2     22    1
6     2     23    1
7     2     24    1
8     2     41    1
9     3     4     1
10    3     25    1
11    3     26    1
12    3     41    1
13    4     5     1
14    4     27    1
15    4     28    1
16    5     6     1
17    5     13    1
18    6     7     1
19    6     29    1
20    6     30    1
21    7     12    ar
22    7     8     ar
23    8     9     ar
24    8     31    1
25    9     10    ar
26    9     32    1
27    10    11    ar
28    10    33    1
29    11    12    ar
30    11    34    1
31    12    35    1
32    13    18    ar
33    13    14    ar
34    14    15    ar
35    14    36    1
36    15    16    ar
37    15    37    1
38    16    17    ar
39    16    38    1
40    17    18    ar
41    17    39    1
42    18    40    1
43    41    42    1
@<TRIPOS>SUBSTRUCTURE
1   LIG    1    
 
########## Number      : 321
########## Name        : ZINC00001432
########## Description : AM1BCC_CHARGES =   1.0001 ORIGINAL_CHARGES =   1.0000

@<TRIPOS>MOLECULE
ZINC00001432
38    40    1     0     0    
SMALL
USER_CHARGES
****
****
@<TRIPOS>ATOM
1     C1       4.5106   -9.8528    1.6450 C.3     1  LIG   0.0823   0.5030 
2     C2       5.9333   -9.0908   -0.2386 C.3     1  LIG   0.0810   0.5030 
3     C3       4.9174   -7.4096    1.3524 C.3     1  LIG   0.0457   0.5030 
4     C4       6.0175   -6.3432    1.2509 C.3     1  LIG   0.0271   0.3691 
5     N1       5.4690   -5.0068    1.5899 N.pl3   1  LIG  -0.1341  -0.5691 
6     C5       4.5949   -4.4206    0.6344 C.ar    1  LIG  -0.0105   0.1000 
7     C6       4.8372   -4.5265   -0.7515 C.ar    1  LIG  -0.1268  -0.1500 
8     C7       3.9884   -3.9417   -1.6956 C.ar    1  LIG  -0.1102  -0.1500 
9     C8       2.8751   -3.2272   -1.2794 C.ar    1  LIG  -0.1141  -0.1500 
10    C9       2.6160   -3.0931    0.0807 C.ar    1  LIG  -0.0897  -0.1500 
11    C10      3.4685   -3.6751    1.0351 C.ar    1  LIG  -0.0181   0.1015 
12    S1       3.0135   -3.4761    2.7457 S.3     1  LIG  -0.1514  -0.2030 
13    C11      4.5377   -3.8783    3.5742 C.ar    1  LIG  -0.0188   0.1015 
14    C12      5.5725   -4.5979    2.9454 C.ar    1  LIG  -0.0079   0.1000 
15    C13      6.7383   -4.8398    3.7023 C.ar    1  LIG  -0.1287  -0.1500 
16    C14      6.8536   -4.4292    5.0334 C.ar    1  LIG  -0.1069  -0.1500 
17    C15      5.8087   -3.7511    5.6427 C.ar    1  LIG  -0.1145  -0.1500 
18    C16      4.6563   -3.4726    4.9151 C.ar    1  LIG  -0.0864  -0.1500 
19    H1       4.2863   -9.6563    2.6967 H       1  LIG   0.1076   0.0000 
20    H2       3.6078   -9.7921    1.0314 H       1  LIG   0.1075   0.0000 
21    H3       4.9885  -10.8312    1.5467 H       1  LIG   0.1034   0.0000 
22    H4       6.7475   -8.4085   -0.4900 H       1  LIG   0.1054   0.0000 
23    H5       6.3007  -10.1200   -0.2761 H       1  LIG   0.1031   0.0000 
24    H6       5.0816   -8.9561   -0.9106 H       1  LIG   0.1072   0.0000 
25    H7       4.1288   -7.2749    0.6040 H       1  LIG   0.1115   0.0000 
26    H8       4.4627   -7.3811    2.3494 H       1  LIG   0.1127   0.0000 
27    H9       6.8415   -6.6368    1.9077 H       1  LIG   0.0697   0.0000 
28    H10      6.4700   -6.3390    0.2559 H       1  LIG   0.0700   0.0000 
29    H11      5.7128   -5.0423   -1.1347 H       1  LIG   0.1421   0.1500 
30    H12      4.2068   -4.0400   -2.7553 H       1  LIG   0.1497   0.1500 
31    H13      2.2128   -2.7710   -2.0091 H       1  LIG   0.1541   0.1500 
32    H14      1.7382   -2.5288    0.3894 H       1  LIG   0.1580   0.1500 
33    H15      7.6065   -5.3222    3.2612 H       1  LIG   0.1409   0.1500 
34    H16      7.7669   -4.6315    5.5860 H       1  LIG   0.1499   0.1500 
35    H17      5.8934   -3.4292    6.6764 H       1  LIG   0.1542   0.1500 
36    H18      3.8503   -2.9307    5.4059 H       1  LIG   0.1581   0.1500 
37    N2       5.4848   -8.8051    1.1699 N.4     1  LIG  -0.6720  -0.9590 
38    H19      6.3122   -8.8874    1.7764 H       1  LIG   0.4490   0.4500 
@<TRIPOS>BOND
1     1     19    1
2     1     20    1
3     1     21    1
4     1     37    1
5     2     22    1
6     2     23    1
7     2     24    1
8     2     37    1
9     3     4     1
10    3     25    1
11    3     26    1
12    3     37    1
13    4     5     1
14    4     27    1
15    4     28    1
16    5     14    1
17    5     6     1
18    6     11    ar
19    6     7     ar
20    7     8     ar
21    7     29    1
22    8     9     ar
23    8     30    1
24    9     10    ar
25    9     31    1
26    10    11    ar
27    10    32    1
28    11    12    1
29    12    13    1
30    13    18    ar
31    13    14    ar
32    14    15    ar
33    15    16    ar
34    15    33    1
35    16    17    ar
36    16    34    1
37    17    18    ar
38    17    35    1
39    18    36    1
40    37    38    1
@<TRIPOS>SUBSTRUCTURE
1   LIG    1    
 
########## Number      : 322
########## Name        : ZINC00001438
########## Description : AM1BCC_CHARGES =   1.0001 ORIGINAL_CHARGES =   1.0000

@<TRIPOS>MOLECULE
ZINC00001438
51    53    1     0     0    
SMALL
USER_CHARGES
****
****
@<TRIPOS>ATOM
1     C1       7.8831   -9.4355   -0.3539 C.ar    1  LIG  -0.1066  -0.1500 
2     C2       7.5877   -9.8518    0.9386 C.ar    1  LIG  -0.1198  -0.1500 
3     C3       6.4846   -9.3193    1.6124 C.ar    1  LIG  -0.1260  -0.1500 
4     C4       5.6574   -8.3429    1.0183 C.ar    1  LIG  -0.1162  -0.1435 
5     C5       5.9653   -7.9617   -0.3014 C.ar    1  LIG  -0.1276  -0.1500 
6     C6       7.0692   -8.4951   -0.9753 C.ar    1  LIG  -0.1211  -0.1500 
7     C7       4.4055   -7.7782    1.7630 C.3     1  LIG   0.0027   0.3480 
8     C8       4.1208   -6.2903    1.3098 C.3     1  LIG  -0.0827   0.0000 
9     C9       3.0393   -5.5490    2.1160 C.3     1  LIG   0.1001   0.5030 
10    C10      2.2109   -3.2106    2.4768 C.3     1  LIG   0.1129   0.5030 
11    C11      2.0283   -1.8543    1.8111 C.3     1  LIG  -0.1073   0.0000 
12    C12      1.1057   -1.9375    0.6013 C.3     1  LIG  -0.0977   0.0000 
13    C13      1.5839   -2.9997   -0.3811 C.3     1  LIG  -0.1088   0.0000 
14    C14      1.7624   -4.3514    0.2951 C.3     1  LIG   0.1114   0.5030 
15    C15      4.5939   -7.7392    3.3029 C.ar    1  LIG  -0.1220  -0.1435 
16    C16      5.7304   -7.1080    3.8536 C.ar    1  LIG  -0.1282  -0.1500 
17    C17      5.9182   -7.0254    5.2349 C.ar    1  LIG  -0.1264  -0.1500 
18    C18      4.9679   -7.5579    6.0991 C.ar    1  LIG  -0.1114  -0.1500 
19    C19      3.8274   -8.1645    5.5817 C.ar    1  LIG  -0.1247  -0.1500 
20    C20      3.6376   -8.2486    4.1988 C.ar    1  LIG  -0.1295  -0.1500 
21    C21      3.1919   -8.6493    1.3082 C.2     1  LIG   0.6659   0.5690 
22    O1       2.2058   -8.1837    0.7363 O.2     1  LIG  -0.6637  -0.5700 
23    N1       3.2865   -9.9970    1.5752 N.am    1  LIG  -0.6338  -0.8000 
24    H1       2.5396  -10.6247    1.2986 H       1  LIG   0.3317   0.3700 
25    H2       4.0734  -10.4125    2.0602 H       1  LIG   0.3290   0.3700 
26    H3       8.7382   -9.8501   -0.8794 H       1  LIG   0.1507   0.1500 
27    H4       8.2110  -10.5969    1.4251 H       1  LIG   0.1495   0.1500 
28    H5       6.2825   -9.6912    2.6141 H       1  LIG   0.1477   0.1500 
29    H6       5.3512   -7.2503   -0.8447 H       1  LIG   0.1247   0.1500 
30    H7       7.2865   -8.1780   -1.9917 H       1  LIG   0.1459   0.1500 
31    H8       3.8313   -6.2831    0.2538 H       1  LIG   0.0713   0.0000 
32    H9       5.0479   -5.7023    1.3685 H       1  LIG   0.0667   0.0000 
33    H10      3.4102   -5.3218    3.1202 H       1  LIG   0.1033   0.0000 
34    H11      2.0986   -6.1003    2.2031 H       1  LIG   0.1415   0.0000 
35    H12      1.2708   -3.6006    2.8824 H       1  LIG   0.1044   0.0000 
36    H13      2.9563   -3.1414    3.2759 H       1  LIG   0.0979   0.0000 
37    H14      1.6197   -1.1419    2.5365 H       1  LIG   0.0990   0.0000 
38    H15      3.0050   -1.4644    1.4981 H       1  LIG   0.0669   0.0000 
39    H16      0.0880   -2.1775    0.9331 H       1  LIG   0.0675   0.0000 
40    H17      1.0585   -0.9634    0.1019 H       1  LIG   0.0880   0.0000 
41    H18      0.8627   -3.0923   -1.2009 H       1  LIG   0.1009   0.0000 
42    H19      2.5348   -2.6831   -0.8276 H       1  LIG   0.0653   0.0000 
43    H20      2.1832   -5.0726   -0.4101 H       1  LIG   0.1070   0.0000 
44    H21      0.8157   -4.7373    0.6893 H       1  LIG   0.1103   0.0000 
45    H22      6.4870   -6.6710    3.2050 H       1  LIG   0.1421   0.1500 
46    H23      6.8056   -6.5420    5.6336 H       1  LIG   0.1483   0.1500 
47    H24      5.1112   -7.4937    7.1737 H       1  LIG   0.1503   0.1500 
48    H25      3.0770   -8.5693    6.2554 H       1  LIG   0.1493   0.1500 
49    H26      2.7177   -8.7079    3.8484 H       1  LIG   0.1474   0.1500 
50    N2       2.7221   -4.2116    1.4603 N.4     1  LIG  -0.6822  -0.9590 
51    H27      3.6077   -3.8352    1.0949 H       1  LIG   0.4362   0.4500 
@<TRIPOS>BOND
1     1     6     ar
2     1     2     ar
3     1     26    1
4     2     3     ar
5     2     27    1
6     3     4     ar
7     3     28    1
8     4     5     ar
9     4     7     1
10    5     6     ar
11    5     29    1
12    6     30    1
13    7     8     1
14    7     15    1
15    7     21    1
16    8     9     1
17    8     31    1
18    8     32    1
19    9     33    1
20    9     34    1
21    9     50    1
22    10    11    1
23    10    35    1
24    10    36    1
25    10    50    1
26    11    12    1
27    11    37    1
28    11    38    1
29    12    13    1
30    12    39    1
31    12    40    1
32    13    14    1
33    13    41    1
34    13    42    1
35    14    43    1
36    14    44    1
37    14    50    1
38    15    20    ar
39    15    16    ar
40    16    17    ar
41    16    45    1
42    17    18    ar
43    17    46    1
44    18    19    ar
45    18    47    1
46    19    20    ar
47    19    48    1
48    20    49    1
49    21    22    2
50    21    23    am
51    23    24    1
52    23    25    1
53    50    51    1
@<TRIPOS>SUBSTRUCTURE
1   LIG    1    
 
########## Number      : 323
########## Name        : ZINC00001442
########## Description : AM1BCC_CHARGES =   1.0001 ORIGINAL_CHARGES =   1.0000

@<TRIPOS>MOLECULE
ZINC00001442
51    53    1     0     0    
SMALL
USER_CHARGES
****
****
@<TRIPOS>ATOM
1     C1       9.4459   -7.0150   -1.5785 C.3     1  LIG  -0.0915   0.0000 
2     C2       7.9452   -6.7930   -1.6981 C.3     1  LIG  -0.1369   0.0610 
3     C3       7.1820   -7.3793   -0.5120 C.2     1  LIG   0.6729   0.5690 
4     O1       7.7205   -8.2272    0.2071 O.2     1  LIG  -0.5969  -0.5700 
5     N1       5.8886   -6.8762   -0.2580 N.am    1  LIG  -0.4114  -0.4771 
6     C4       5.1827   -6.0518   -1.1877 C.ar    1  LIG   0.0220   0.1170 
7     C5       4.9784   -6.4958   -2.5027 C.ar    1  LIG  -0.1365  -0.1500 
8     C6       4.2777   -5.7089   -3.4191 C.ar    1  LIG  -0.1101  -0.1500 
9     C7       3.7700   -4.4719   -3.0314 C.ar    1  LIG  -0.1173  -0.1500 
10    C8       3.9585   -4.0240   -1.7263 C.ar    1  LIG  -0.1159  -0.1500 
11    C9       4.6572   -4.8108   -0.8070 C.ar    1  LIG  -0.1575  -0.1500 
12    C10      5.2440   -7.2548    1.0237 C.3     1  LIG   0.1183   0.3001 
13    C11      5.7230   -6.3883    2.1970 C.3     1  LIG  -0.1376   0.0000 
14    C12      5.1608   -6.8863    3.5217 C.3     1  LIG   0.1166   0.5030 
15    C13      3.1765   -7.8592    2.3423 C.3     1  LIG   0.1153   0.5030 
16    C14      3.7104   -7.3577    1.0060 C.3     1  LIG  -0.1210   0.0000 
17    C15      3.0612   -7.3058    4.8078 C.3     1  LIG   0.1035   0.5030 
18    C16      1.5864   -6.9114    4.8895 C.3     1  LIG  -0.0019   0.1800 
19    C17      1.0410   -7.1508    6.2669 C.2     1  LIG  -0.1962  -0.1400 
20    C18      0.4875   -8.3100    6.7732 C.2     1  LIG  -0.1184  -0.1500 
21    C19      0.0770   -8.1667    8.1298 C.2     1  LIG  -0.1521  -0.1500 
22    C20      0.3285   -6.9029    8.6141 C.2     1  LIG  -0.1341  -0.1100 
23    S1       1.0550   -5.8978    7.4366 S.3     1  LIG   0.0535  -0.0800 
24    H1       9.9666   -6.5568   -2.4250 H       1  LIG   0.0527   0.0000 
25    H2       9.8351   -6.5728   -0.6554 H       1  LIG   0.0485   0.0000 
26    H3       9.6882   -8.0828   -1.5686 H       1  LIG   0.0597   0.0000 
27    H4       7.5990   -7.2759   -2.6161 H       1  LIG   0.0768   0.0000 
28    H5       7.7610   -5.7161   -1.7654 H       1  LIG   0.0754   0.0000 
29    H6       5.3331   -7.4728   -2.8212 H       1  LIG   0.1468   0.1500 
30    H7       4.1225   -6.0661   -4.4333 H       1  LIG   0.1515   0.1500 
31    H8       3.2253   -3.8593   -3.7440 H       1  LIG   0.1518   0.1500 
32    H9       3.5639   -3.0582   -1.4227 H       1  LIG   0.1452   0.1500 
33    H10      4.8012   -4.4215    0.1949 H       1  LIG   0.1258   0.1500 
34    H11      5.5972   -8.2745    1.2353 H       1  LIG   0.0896   0.0000 
35    H12      6.8182   -6.3938    2.2498 H       1  LIG   0.1224   0.0000 
36    H13      5.4287   -5.3437    2.0536 H       1  LIG   0.0669   0.0000 
37    H14      5.5188   -7.8924    3.7672 H       1  LIG   0.1080   0.0000 
38    H15      5.4291   -6.1957    4.3280 H       1  LIG   0.0999   0.0000 
39    H16      3.5291   -8.8706    2.5727 H       1  LIG   0.1047   0.0000 
40    H17      2.0838   -7.8469    2.3317 H       1  LIG   0.1010   0.0000 
41    H18      3.2473   -6.3880    0.7962 H       1  LIG   0.0793   0.0000 
42    H19      3.3912   -8.0412    0.2101 H       1  LIG   0.1085   0.0000 
43    H20      3.2182   -8.3796    4.9621 H       1  LIG   0.1075   0.0000 
44    H21      3.6376   -6.7569    5.5616 H       1  LIG   0.1046   0.0000 
45    H22      1.4594   -5.8583    4.6086 H       1  LIG   0.0609   0.0000 
46    H23      0.9907   -7.4950    4.1785 H       1  LIG   0.0724   0.0000 
47    H24      0.3810   -9.2217    6.1986 H       1  LIG   0.1566   0.1500 
48    H25     -0.3803   -8.9505    8.7198 H       1  LIG   0.1736   0.1500 
49    H26      0.1191   -6.5216    9.6038 H       1  LIG   0.1911   0.1500 
50    N2       3.6476   -6.9425    3.4524 N.4     1  LIG  -0.6896  -0.9590 
51    H27      3.3251   -5.9899    3.2316 H       1  LIG   0.4417   0.4500 
@<TRIPOS>BOND
1     1     2     1
2     1     24    1
3     1     25    1
4     1     26    1
5     2     3     1
6     2     27    1
7     2     28    1
8     3     4     2
9     3     5     am
10    5     6     1
11    5     12    1
12    6     11    ar
13    6     7     ar
14    7     8     ar
15    7     29    1
16    8     9     ar
17    8     30    1
18    9     10    ar
19    9     31    1
20    10    11    ar
21    10    32    1
22    11    33    1
23    12    16    1
24    12    13    1
25    12    34    1
26    13    14    1
27    13    35    1
28    13    36    1
29    14    37    1
30    14    38    1
31    14    50    1
32    15    16    1
33    15    39    1
34    15    40    1
35    15    50    1
36    16    41    1
37    16    42    1
38    17    18    1
39    17    43    1
40    17    44    1
41    17    50    1
42    18    19    1
43    18    45    1
44    18    46    1
45    19    23    1
46    19    20    2
47    20    21    1
48    20    47    1
49    21    22    2
50    21    48    1
51    22    23    1
52    22    49    1
53    50    51    1
@<TRIPOS>SUBSTRUCTURE
1   LIG    1    
 
########## Number      : 324
########## Name        : ZINC00001444
########## Description : AM1BCC_CHARGES =  -1.0002 ORIGINAL_CHARGES =  -1.0000

@<TRIPOS>MOLECULE
ZINC00001444
33    35    1     0     0    
SMALL
USER_CHARGES
****
****
@<TRIPOS>ATOM
1     C1      -0.7523   -2.6302   -7.3218 C.ar    1  LIG  -0.1468  -0.1500 
2     C2       0.3085   -1.8058   -6.9603 C.ar    1  LIG  -0.1397  -0.1500 
3     C3       1.1543   -2.1732   -5.9102 C.ar    1  LIG  -0.1076  -0.1500 
4     C4       0.9583   -3.3736   -5.2048 C.ar    1  LIG  -0.0837   0.0530 
5     C5      -0.1219   -4.1885   -5.5811 C.ar    1  LIG  -0.1341  -0.1500 
6     C6      -0.9681   -3.8196   -6.6320 C.ar    1  LIG  -0.1323  -0.1500 
7     C7       1.8762   -3.7114   -4.1016 C.2     1  LIG   0.3429   0.3251 
8     N1       2.6543   -2.8330   -3.5014 N.2     1  LIG  -0.6128  -0.5653 
9     C8       3.4199   -3.4439   -2.5225 C.2     1  LIG   0.3055   0.1732 
10    C9       3.2062   -4.8031   -2.3617 C.2     1  LIG  -0.0595  -0.1400 
11    S1       2.0419   -5.3216   -3.5143 S.3     1  LIG  -0.0173  -0.0800 
12    C10      3.7918   -5.7896   -1.3979 C.3     1  LIG  -0.1814   0.0740 
13    C11      3.2091   -5.5534   -0.0041 C.2     1  LIG   0.9247   0.9060 
14    O1       2.0257   -5.9640    0.1639 O.co2   1  LIG  -0.8268  -0.9000 
15    C12      4.3398   -2.6498   -1.7290 C.ar    1  LIG  -0.0627   0.0540 
16    C13      3.8540   -1.5567   -0.9998 C.ar    1  LIG  -0.0914  -0.1500 
17    C14      4.7250   -0.7745   -0.2390 C.ar    1  LIG  -0.1303  -0.1500 
18    C15      6.0850   -1.0799   -0.2139 C.ar    1  LIG   0.0133   0.1770 
19    C16      6.5818   -2.1573   -0.9464 C.ar    1  LIG  -0.1295  -0.1500 
20    C17      5.7099   -2.9392   -1.7069 C.ar    1  LIG  -0.1067  -0.1500 
21    Cl1      7.1604   -0.1154    0.7234 Cl      1  LIG  -0.1348  -0.1770 
22    H1      -1.4109   -2.3455   -8.1370 H       1  LIG   0.1184   0.1500 
23    H2       0.4803   -0.8751   -7.4936 H       1  LIG   0.1206   0.1500 
24    H3       1.9758   -1.5072   -5.6526 H       1  LIG   0.1507   0.1500 
25    H4      -0.3381   -5.1197   -5.0635 H       1  LIG   0.1418   0.1500 
26    H5      -1.7989   -4.4632   -6.9080 H       1  LIG   0.1226   0.1500 
27    H6       3.5757   -6.8228   -1.6964 H       1  LIG   0.0450   0.0000 
28    H7       4.8833   -5.7025   -1.3750 H       1  LIG   0.0629   0.0000 
29    H8       2.7946   -1.3105   -1.0110 H       1  LIG   0.1476   0.1500 
30    H9       4.3310    0.0653    0.3270 H       1  LIG   0.1345   0.1500 
31    H10      7.6415   -2.3977   -0.9358 H       1  LIG   0.1340   0.1500 
32    H11      6.1137   -3.7689   -2.2821 H       1  LIG   0.1384   0.1500 
33    O2       3.9916   -4.9953    0.8164 O.co2   1  LIG  -0.8057  -0.9000 
@<TRIPOS>BOND
1     1     6     ar
2     1     2     ar
3     1     22    1
4     2     3     ar
5     2     23    1
6     3     4     ar
7     3     24    1
8     4     5     ar
9     4     7     1
10    5     6     ar
11    5     25    1
12    6     26    1
13    7     11    1
14    7     8     2
15    8     9     1
16    9     10    2
17    9     15    1
18    10    11    1
19    10    12    1
20    12    13    1
21    12    27    1
22    12    28    1
23    13    14    2
24    13    33    1
25    15    20    ar
26    15    16    ar
27    16    17    ar
28    16    29    1
29    17    18    ar
30    17    30    1
31    18    19    ar
32    18    21    1
33    19    20    ar
34    19    31    1
35    20    32    1
@<TRIPOS>SUBSTRUCTURE
1   LIG    1    
 
########## Number      : 325
########## Name        : ZINC00001447
########## Description : AM1BCC_CHARGES =  -0.0001 ORIGINAL_CHARGES =  -0.0000

@<TRIPOS>MOLECULE
ZINC00001447
21    22    1     0     0    
SMALL
USER_CHARGES
****
****
@<TRIPOS>ATOM
1     C1       5.0458   -4.0303    0.7958 C.3     1  LIG   0.0803   0.3001 
2     N1       3.8367   -4.7236    0.3631 N.am    1  LIG  -0.4199  -0.4771 
3     C2       2.6470   -4.4540    1.0793 C.ar    1  LIG   0.3893   0.4270 
4     C3       1.4709   -5.0682    0.7306 C.ar    1  LIG   0.2156   0.3962 
5     C4       1.4306   -6.0134   -0.3901 C.2     1  LIG   0.6218   0.5438 
6     O1       0.3628   -6.5473   -0.6783 O.2     1  LIG  -0.5535  -0.5700 
7     N2       2.6487   -6.2258   -1.0471 N.am    1  LIG  -0.4899  -0.4201 
8     C5       3.8778   -5.6118   -0.7161 C.2     1  LIG   0.8124   0.6900 
9     O2       4.9158   -5.8483   -1.3424 O.2     1  LIG  -0.6139  -0.5700 
10    C6       2.6691   -7.1560   -2.1698 C.3     1  LIG   0.0774   0.3001 
11    N3       0.3045   -4.8548    1.3716 N.ar    1  LIG  -0.5532  -0.6200 
12    C7       0.3777   -3.9877    2.3877 C.ar    1  LIG   0.5167   0.4700 
13    N4       1.4887   -3.3474    2.7892 N.ar    1  LIG  -0.2797  -0.3100 
14    N5       2.6421   -3.5903    2.1172 N.ar    1  LIG  -0.2998  -0.3100 
15    H1       5.2641   -4.2979    1.8346 H       1  LIG   0.0613   0.0000 
16    H2       5.9070   -4.3057    0.1811 H       1  LIG   0.0912   0.0000 
17    H3       4.8931   -2.9496    0.7108 H       1  LIG   0.0607   0.0000 
18    H4       1.6869   -7.5915   -2.3681 H       1  LIG   0.0864   0.0000 
19    H5       3.0147   -6.6239   -3.0620 H       1  LIG   0.0593   0.0000 
20    H6       3.3816   -7.9577   -1.9503 H       1  LIG   0.0581   0.0000 
21    H7      -0.5334   -3.7831    2.9340 H       1  LIG   0.0793   0.1500 
@<TRIPOS>BOND
1     1     2     1
2     1     15    1
3     1     16    1
4     1     17    1
5     2     8     am
6     2     3     1
7     3     14    ar
8     3     4     ar
9     4     5     1
10    4     11    ar
11    5     6     2
12    5     7     am
13    7     8     am
14    7     10    1
15    8     9     2
16    10    18    1
17    10    19    1
18    10    20    1
19    11    12    ar
20    12    13    ar
21    12    21    1
22    13    14    ar
@<TRIPOS>SUBSTRUCTURE
1   LIG    1    
 
########## Number      : 326
########## Name        : ZINC00001453
########## Description : AM1BCC_CHARGES =  -1.0001 ORIGINAL_CHARGES =  -1.0000

@<TRIPOS>MOLECULE
ZINC00001453
32    34    1     0     0    
SMALL
USER_CHARGES
****
****
@<TRIPOS>ATOM
1     C1       6.3476  -10.1833    2.0411 C.ar    1  LIG  -0.1191  -0.1500 
2     C2       6.5656   -9.3931    0.9154 C.ar    1  LIG  -0.1462  -0.1500 
3     C3       6.0613   -8.0908    0.8635 C.ar    1  LIG  -0.1008  -0.1500 
4     C4       5.3254   -7.5623    1.9364 C.ar    1  LIG  -0.0670   0.0284 
5     C5       5.1236   -8.3695    3.0678 C.ar    1  LIG  -0.0732  -0.1500 
6     C6       5.6285   -9.6712    3.1178 C.ar    1  LIG  -0.1360  -0.1500 
7     C7       4.7964   -6.1827    1.9092 C.2     1  LIG   0.2021   0.0483 
8     C8       4.2633   -5.6484    0.8002 C.2     1  LIG  -0.3410  -0.1356 
9     C9       3.7469   -4.2679    0.8419 C.2     1  LIG   0.5972   0.4694 
10    O1       3.2530   -3.7450   -0.1480 O.2     1  LIG  -0.5891  -0.5700 
11    C10      3.8591   -3.5660    2.1299 C.ar    1  LIG  -0.2202   0.0862 
12    C11      3.4051   -2.2516    2.2572 C.ar    1  LIG  -0.0868  -0.1500 
13    C12      3.5219   -1.6014    3.4833 C.ar    1  LIG  -0.1662  -0.1500 
14    C13      4.0856   -2.2624    4.5761 C.ar    1  LIG  -0.0799  -0.1500 
15    C14      4.5377   -3.5868    4.4616 C.ar    1  LIG  -0.0223  -0.1435 
16    C15      4.4247   -4.2324    3.2190 C.ar    1  LIG   0.1156   0.0825 
17    O2       4.8848   -5.5236    3.1242 O.3     1  LIG  -0.2074  -0.1592 
18    C16      5.1551   -4.2640    5.6585 C.3     1  LIG  -0.1821   0.0375 
19    C17      6.6702   -4.0939    5.6235 C.2     1  LIG   0.9237   0.9060 
20    O3       7.0987   -2.9898    6.0653 O.co2   1  LIG  -0.8400  -0.9000 
21    H1       6.7415  -11.1945    2.0811 H       1  LIG   0.1236   0.1500 
22    H2       7.1332   -9.7875    0.0773 H       1  LIG   0.1249   0.1500 
23    H3       6.2636   -7.4942   -0.0231 H       1  LIG   0.1365   0.1500 
24    H4       4.5654   -7.9962    3.9239 H       1  LIG   0.1631   0.1500 
25    H5       5.4608  -10.2833    3.9994 H       1  LIG   0.1350   0.1500 
26    H6       4.1792   -6.1796   -0.1405 H       1  LIG   0.1514   0.1500 
27    H7       2.9647   -1.7243    1.4156 H       1  LIG   0.1385   0.1500 
28    H8       3.1765   -0.5769    3.5899 H       1  LIG   0.1220   0.1500 
29    H9       4.1750   -1.7347    5.5232 H       1  LIG   0.1768   0.1500 
30    H10      4.7598   -3.8347    6.5876 H       1  LIG   0.0402   0.0000 
31    H11      4.8835   -5.3261    5.6843 H       1  LIG   0.0499   0.0000 
32    O4       7.3133   -5.0862    5.1781 O.co2   1  LIG  -0.8233  -0.9000 
@<TRIPOS>BOND
1     1     6     ar
2     1     2     ar
3     1     21    1
4     2     3     ar
5     2     22    1
6     3     4     ar
7     3     23    1
8     4     5     ar
9     4     7     1
10    5     6     ar
11    5     24    1
12    6     25    1
13    7     17    1
14    7     8     2
15    8     9     1
16    8     26    1
17    9     10    2
18    9     11    1
19    11    16    ar
20    11    12    ar
21    12    13    ar
22    12    27    1
23    13    14    ar
24    13    28    1
25    14    15    ar
26    14    29    1
27    15    16    ar
28    15    18    1
29    16    17    1
30    18    19    1
31    18    30    1
32    18    31    1
33    19    20    2
34    19    32    1
@<TRIPOS>SUBSTRUCTURE
1   LIG    1    
 
########## Number      : 327
########## Name        : ZINC00001454
########## Description : AM1BCC_CHARGES =   0.0001 ORIGINAL_CHARGES =   0.0000

@<TRIPOS>MOLECULE
ZINC00001454
23    23    1     0     0    
SMALL
USER_CHARGES
****
****
@<TRIPOS>ATOM
1     C1       2.9070   -2.4602   -2.7275 C.3     1  LIG  -0.0858   0.0000 
2     C2       1.7165   -3.3745   -2.9479 C.3     1  LIG  -0.1640   0.0610 
3     C3       0.7866   -2.8134   -4.0047 C.2     1  LIG   0.6107   0.4228 
4     O1       1.1706   -2.5435   -5.1405 O.2     1  LIG  -0.5699  -0.5700 
5     C4      -0.6537   -2.6643   -3.6873 C.ar    1  LIG  -0.3179   0.0862 
6     C5      -1.6141   -3.1909   -4.5637 C.ar    1  LIG   0.2525   0.0825 
7     C6      -2.9752   -3.0813   -4.2760 C.ar    1  LIG  -0.2985  -0.1500 
8     C7      -3.3769   -2.4239   -3.1159 C.ar    1  LIG   0.2194   0.0825 
9     C8      -2.4404   -1.8712   -2.2461 C.ar    1  LIG  -0.2971  -0.1500 
10    C9      -1.0792   -1.9876   -2.5374 C.ar    1  LIG   0.2306   0.0825 
11    O2      -0.1638   -1.4045   -1.7046 O.3     1  LIG  -0.4937  -0.5325 
12    O3      -4.7007   -2.2945   -2.8026 O.3     1  LIG  -0.4894  -0.5325 
13    O4      -1.2878   -3.8404   -5.7244 O.3     1  LIG  -0.4981  -0.5325 
14    H1      -0.6334   -0.9695   -0.9723 H       1  LIG   0.4302   0.4500 
15    H2      -5.2282   -2.7234   -3.4981 H       1  LIG   0.4296   0.4500 
16    H3      -0.3368   -3.7252   -5.8975 H       1  LIG   0.4571   0.4500 
17    H4       3.5691   -2.8744   -1.9611 H       1  LIG   0.0367   0.0000 
18    H5       3.4870   -2.3387   -3.6484 H       1  LIG   0.0514   0.0000 
19    H6       2.5861   -1.4649   -2.4041 H       1  LIG   0.0446   0.0000 
20    H7       2.0552   -4.3564   -3.2980 H       1  LIG   0.0658   0.0000 
21    H8       1.1910   -3.5460   -2.0041 H       1  LIG   0.0688   0.0000 
22    H9      -3.7088   -3.5029   -4.9574 H       1  LIG   0.1594   0.1500 
23    H10     -2.7759   -1.3489   -1.3544 H       1  LIG   0.1577   0.1500 
@<TRIPOS>BOND
1     1     2     1
2     1     17    1
3     1     18    1
4     1     19    1
5     2     3     1
6     2     20    1
7     2     21    1
8     3     4     2
9     3     5     1
10    5     10    ar
11    5     6     ar
12    6     7     ar
13    6     13    1
14    7     8     ar
15    7     22    1
16    8     9     ar
17    8     12    1
18    9     10    ar
19    9     23    1
20    10    11    1
21    11    14    1
22    12    15    1
23    13    16    1
@<TRIPOS>SUBSTRUCTURE
1   LIG    1    
 
########## Number      : 328
########## Name        : ZINC00001458
########## Description : AM1BCC_CHARGES =  -0.0004 ORIGINAL_CHARGES =   0.0000

@<TRIPOS>MOLECULE
ZINC00001458
35    37    1     0     0    
SMALL
USER_CHARGES
****
****
@<TRIPOS>ATOM
1     C1       4.3378   -6.0582    2.7457 C.3     1  LIG   0.1371   0.2800 
2     O1       3.6972   -5.0836    3.5758 O.3     1  LIG  -0.4286  -0.4300 
3     C2       4.1053   -3.7923    3.3936 C.2     1  LIG   0.7522   0.7800 
4     O2       4.9600   -3.4497    2.5838 O.2     1  LIG  -0.5865  -0.5700 
5     N1       3.4067   -2.9748    4.2544 N.am    1  LIG  -0.4474  -0.4940 
6     C3       3.5788   -1.6102    4.3265 C.2     1  LIG   0.4825   0.2505 
7     N2       4.4664   -0.9054    3.5502 N.pl3   1  LIG  -0.2776   0.0332 
8     C4       4.3759    0.4203    3.8848 C.ar    1  LIG  -0.0488  -0.1516 
9     C5       5.0444    1.5529    3.4205 C.ar    1  LIG  -0.1383  -0.1500 
10    C6       4.6921    2.7755    4.0026 C.ar    1  LIG  -0.0728  -0.1500 
11    C7       3.7054    2.8474    4.9951 C.ar    1  LIG  -0.1864   0.0862 
12    C8       3.0577    1.6900    5.4575 C.ar    1  LIG  -0.0375  -0.1500 
13    C9       3.4049    0.4578    4.8780 C.ar    1  LIG   0.0663   0.2272 
14    N3       2.9255   -0.8045    5.1392 N.2     1  LIG  -0.5908  -0.5653 
15    C10      3.3944    4.1709    5.5842 C.2     1  LIG   0.5931   0.3976 
16    O3       4.3045    4.9739    5.7657 O.2     1  LIG  -0.5292  -0.5700 
17    C11      2.0113    4.5475    5.9585 C.ar    1  LIG  -0.1847   0.0862 
18    C12      0.9156    4.1472    5.1830 C.ar    1  LIG  -0.0660  -0.1500 
19    C13     -0.3725    4.5363    5.5508 C.ar    1  LIG  -0.1794  -0.1500 
20    C14     -0.5549    5.3281    6.6806 C.ar    1  LIG   0.1496   0.1900 
21    C15      0.5280    5.7441    7.4490 C.ar    1  LIG  -0.1795  -0.1500 
22    C16      1.8174    5.3577    7.0847 C.ar    1  LIG  -0.0544  -0.1500 
23    F1      -1.7935    5.7013    7.0308 F       1  LIG  -0.1366  -0.1900 
24    H1       2.7217   -3.3869    4.8784 H       1  LIG   0.3727   0.3700 
25    H2       5.0819   -1.3036    2.8534 H       1  LIG   0.3396   0.2700 
26    H3       3.9224   -7.0391    2.9917 H       1  LIG   0.0724   0.0000 
27    H4       4.1384   -5.8477    1.6906 H       1  LIG   0.0537   0.0000 
28    H5       5.4142   -6.0744    2.9414 H       1  LIG   0.0542   0.0000 
29    H6       5.8027    1.4939    2.6476 H       1  LIG   0.1453   0.1500 
30    H7       5.1969    3.6773    3.6618 H       1  LIG   0.1539   0.1500 
31    H8       2.3155    1.7225    6.2482 H       1  LIG   0.1579   0.1500 
32    H9       1.0458    3.5472    4.2865 H       1  LIG   0.1495   0.1500 
33    H10     -1.2281    4.2292    4.9572 H       1  LIG   0.1534   0.1500 
34    H11      0.3688    6.3663    8.3241 H       1  LIG   0.1539   0.1500 
35    H12      2.6601    5.6864    7.6877 H       1  LIG   0.1568   0.1500 
@<TRIPOS>BOND
1     1     2     1
2     1     26    1
3     1     27    1
4     1     28    1
5     2     3     1
6     3     4     2
7     3     5     am
8     5     6     1
9     5     24    1
10    6     14    2
11    6     7     1
12    7     8     1
13    7     25    1
14    8     13    ar
15    8     9     ar
16    9     10    ar
17    9     29    1
18    10    11    ar
19    10    30    1
20    11    12    ar
21    11    15    1
22    12    13    ar
23    12    31    1
24    13    14    1
25    15    16    2
26    15    17    1
27    17    22    ar
28    17    18    ar
29    18    19    ar
30    18    32    1
31    19    20    ar
32    19    33    1
33    20    21    ar
34    20    23    1
35    21    22    ar
36    21    34    1
37    22    35    1
@<TRIPOS>SUBSTRUCTURE
1   LIG    1    
 
########## Number      : 329
########## Name        : ZINC00001466
########## Description : AM1BCC_CHARGES =  -0.0002 ORIGINAL_CHARGES =  -0.0000

@<TRIPOS>MOLECULE
ZINC00001466
28    29    1     0     0    
SMALL
USER_CHARGES
****
****
@<TRIPOS>ATOM
1     C1       4.1021   -6.2969    2.3946 C.ar    1  LIG  -0.0813  -0.1500 
2     C2       3.5815   -7.2908    3.2237 C.ar    1  LIG  -0.1709  -0.1500 
3     C3       2.2636   -7.7023    3.0548 C.ar    1  LIG   0.1485   0.1900 
4     C4       1.4573   -7.1412    2.0699 C.ar    1  LIG  -0.1712  -0.1500 
5     C5       1.9775   -6.1474    1.2405 C.ar    1  LIG  -0.0625  -0.1500 
6     C6       3.2998   -5.7118    1.4044 C.ar    1  LIG  -0.1653   0.0530 
7     C7       3.8391   -4.6817    0.5210 C.2     1  LIG   0.5027   0.1335 
8     N1       4.0732   -4.8642   -0.7676 N.2     1  LIG  -0.6550  -0.5653 
9     C8       4.5543   -3.6749   -1.2393 C.2     1  LIG   0.4187   0.0772 
10    C9       4.6137   -2.7478   -0.2302 C.2     1  LIG  -0.3547  -0.0716 
11    N2       4.1404   -3.3762    0.8963 N.pl3   1  LIG  -0.1458   0.0476 
12    C10      3.8867   -2.8011    2.2051 C.3     1  LIG  -0.0207   0.2556 
13    C11      2.6002   -1.9883    2.2512 C.3     1  LIG   0.1143   0.2800 
14    O1       2.4022   -1.4702    3.5598 O.3     1  LIG  -0.5757  -0.6800 
15    N3       5.0338   -1.3904   -0.3246 N.pl3   1  LIG   0.3585   0.9600 
16    O2       5.4645   -0.8409    0.6937 O.2     1  LIG  -0.2195  -0.5200 
17    O3       4.9523   -0.8698   -1.4437 O.3     1  LIG  -0.1901  -0.5200 
18    F1       1.7638   -8.6574    3.8511 F       1  LIG  -0.1308  -0.1900 
19    H1       2.2991   -2.2251    4.1642 H       1  LIG   0.3986   0.4000 
20    H2       5.1357   -5.9850    2.5259 H       1  LIG   0.1486   0.1500 
21    H3       4.1998   -7.7427    3.9929 H       1  LIG   0.1580   0.1500 
22    H4       0.4323   -7.4768    1.9471 H       1  LIG   0.1587   0.1500 
23    H5       1.3445   -5.7152    0.4687 H       1  LIG   0.1555   0.1500 
24    H6       4.8281   -3.5552   -2.2783 H       1  LIG   0.0734   0.1500 
25    H7       3.8403   -3.6033    2.9477 H       1  LIG   0.0686   0.0000 
26    H8       4.7522   -2.2047    2.5075 H       1  LIG   0.1099   0.0000 
27    H9       2.6385   -1.1429    1.5574 H       1  LIG   0.0944   0.0000 
28    H10      1.7312   -2.5989    1.9833 H       1  LIG   0.0349   0.0000 
@<TRIPOS>BOND
1     1     6     ar
2     1     2     ar
3     1     20    1
4     2     3     ar
5     2     21    1
6     3     4     ar
7     3     18    1
8     4     5     ar
9     4     22    1
10    5     6     ar
11    5     23    1
12    6     7     1
13    7     11    1
14    7     8     2
15    8     9     1
16    9     10    2
17    9     24    1
18    10    11    1
19    10    15    1
20    11    12    1
21    12    13    1
22    12    25    1
23    12    26    1
24    13    14    1
25    13    27    1
26    13    28    1
27    14    19    1
28    15    16    2
29    15    17    1
@<TRIPOS>SUBSTRUCTURE
1   LIG    1    
 
########## Number      : 330
########## Name        : ZINC00001469
########## Description : AM1BCC_CHARGES =   0.0001 ORIGINAL_CHARGES =   0.0000

@<TRIPOS>MOLECULE
ZINC00001469
29    29    1     0     0    
SMALL
USER_CHARGES
****
****
@<TRIPOS>ATOM
1     C1       3.3087   -4.8638   -2.7659 C.3     1  LIG  -0.0702   0.1382 
2     C2       3.4127   -5.6296   -1.4759 C.2     1  LIG   0.1219  -0.0292 
3     C3       3.1838   -5.0958   -0.2574 C.2     1  LIG  -0.1022   0.1144 
4     C4       3.3568   -5.9946    0.9399 C.2     1  LIG   0.6983   0.6156 
5     O1       3.1142   -5.6094    2.0821 O.2     1  LIG  -0.6240  -0.5700 
6     N1       3.7782   -7.2827    0.6718 N.am    1  LIG  -0.5777  -0.4900 
7     C5       4.0071   -7.8173   -0.5838 C.2     1  LIG   0.8053   0.6900 
8     O2       4.3608   -8.9835   -0.7534 O.2     1  LIG  -0.6319  -0.5700 
9     N2       3.8050   -6.9406   -1.6275 N.am    1  LIG  -0.4685  -0.5390 
10    N3       2.7664   -3.7910    0.0090 N.pl3   1  LIG  -0.6284  -0.8382 
11    C6       1.4291   -3.3205   -0.3670 C.3     1  LIG   0.1601   0.3691 
12    C7       0.4193   -3.6262    0.7272 C.3     1  LIG   0.1219   0.3400 
13    F1      -0.7956   -3.1501    0.3429 F       1  LIG  -0.2461  -0.3400 
14    C8       3.6128   -2.8462    0.7513 C.3     1  LIG   0.1770   0.3691 
15    C9       4.4458   -2.0174   -0.2202 C.3     1  LIG   0.0295   0.2900 
16    Cl1      5.4607   -0.8553    0.6636 Cl      1  LIG  -0.1889  -0.2900 
17    H1       3.9074   -7.9006    1.4658 H       1  LIG   0.3578   0.3700 
18    H2       3.9652   -7.2882   -2.5683 H       1  LIG   0.3557   0.3700 
19    H3       3.1723   -3.7892   -2.6156 H       1  LIG   0.0846   0.0000 
20    H4       4.2234   -4.9863   -3.3568 H       1  LIG   0.0510   0.0000 
21    H5       2.4647   -5.2332   -3.3578 H       1  LIG   0.0718   0.0000 
22    H6       1.4396   -2.2418   -0.5639 H       1  LIG   0.0629   0.0000 
23    H7       1.0926   -3.7849   -1.3012 H       1  LIG   0.0597   0.0000 
24    H8       0.3211   -4.7024    0.8982 H       1  LIG   0.0620   0.0000 
25    H9       0.6860   -3.1463    1.6734 H       1  LIG   0.0527   0.0000 
26    H10      2.9882   -2.1908    1.3707 H       1  LIG   0.0604   0.0000 
27    H11      4.2779   -3.3809    1.4400 H       1  LIG   0.0722   0.0000 
28    H12      5.1083   -2.6531   -0.8161 H       1  LIG   0.0657   0.0000 
29    H13      3.8109   -1.4502   -0.9077 H       1  LIG   0.0675   0.0000 
@<TRIPOS>BOND
1     1     2     1
2     1     19    1
3     1     20    1
4     1     21    1
5     2     9     1
6     2     3     2
7     3     4     1
8     3     10    1
9     4     5     2
10    4     6     am
11    6     7     am
12    6     17    1
13    7     8     2
14    7     9     am
15    9     18    1
16    10    11    1
17    10    14    1
18    11    12    1
19    11    22    1
20    11    23    1
21    12    13    1
22    12    24    1
23    12    25    1
24    14    15    1
25    14    26    1
26    14    27    1
27    15    16    1
28    15    28    1
29    15    29    1
@<TRIPOS>SUBSTRUCTURE
1   LIG    1    
 
########## Number      : 331
########## Name        : ZINC00001470
########## Description : AM1BCC_CHARGES =   0.0001 ORIGINAL_CHARGES =   0.0000

@<TRIPOS>MOLECULE
ZINC00001470
51    54    1     0     0    
SMALL
USER_CHARGES
****
****
@<TRIPOS>ATOM
1     C1      -3.4110   -3.9142   -0.9676 C.3     1  LIG  -0.0853   0.0000 
2     C2      -3.8219   -3.5514   -2.4230 C.3     1  LIG  -0.0792   0.0000 
3     C3      -5.3047   -3.0720   -2.4361 C.3     1  LIG  -0.0633   0.0000 
4     C4      -5.4785   -1.5325   -2.3964 C.3     1  LIG  -0.0702   0.0000 
5     C5      -4.3304   -0.8817   -1.6038 C.3     1  LIG  -0.0539   0.0000 
6     C6      -3.0180   -1.0633   -2.3930 C.3     1  LIG  -0.0466   0.0000 
7     C7      -2.9508   -2.4570   -3.0652 C.3     1  LIG  -0.0564   0.0000 
8     C8      -1.6093   -3.1625   -3.2731 C.3     1  LIG  -0.0713   0.0000 
9     C9      -2.0026   -4.6251   -3.6025 C.3     1  LIG  -0.0800   0.0000 
10    C10     -3.5222   -4.7645   -3.3151 C.3     1  LIG   0.1411   0.2800 
11    O1      -4.2124   -4.6618   -4.5541 O.3     1  LIG  -0.5946  -0.6800 
12    C11     -1.8454   -0.7368   -1.4607 C.3     1  LIG  -0.0716   0.0000 
13    C12     -1.9587    0.7263   -1.0031 C.3     1  LIG  -0.0730   0.0000 
14    C13     -3.3234    1.0663   -0.3545 C.3     1  LIG  -0.0559   0.0000 
15    C14     -4.5364    0.6301   -1.2554 C.3     1  LIG  -0.0352   0.0000 
16    C15     -5.8473    0.8190   -0.4242 C.3     1  LIG  -0.1009   0.0000 
17    C16     -5.7532    1.8239    0.7284 C.3     1  LIG   0.0780   0.4010 
18    C17     -4.7999    2.9503    0.4188 C.2     1  LIG   0.5447   0.4480 
19    O2      -5.1083    4.1303    0.5808 O.2     1  LIG  -0.5028  -0.5700 
20    C18     -3.4092    2.5614   -0.0336 C.3     1  LIG  -0.1811   0.0610 
21    F1      -7.0006    2.3136    0.9574 F       1  LIG  -0.2229  -0.3400 
22    C19     -4.6736    1.5010   -2.5322 C.3     1  LIG  -0.0913   0.0000 
23    H1      -5.0903   -5.0617   -4.4332 H       1  LIG   0.3986   0.4000 
24    H2      -2.3788   -4.2741   -0.9062 H       1  LIG   0.0374   0.0000 
25    H3      -3.4950   -3.1056   -0.2458 H       1  LIG   0.0394   0.0000 
26    H4      -4.0437   -4.7307   -0.5977 H       1  LIG   0.0314   0.0000 
27    H5      -5.8494   -3.4309   -3.3148 H       1  LIG   0.0411   0.0000 
28    H6      -5.8349   -3.5056   -1.5781 H       1  LIG   0.0388   0.0000 
29    H7      -5.4941   -1.1538   -3.4256 H       1  LIG   0.0463   0.0000 
30    H8      -6.4583   -1.3056   -1.9643 H       1  LIG   0.0422   0.0000 
31    H9      -4.3170   -1.4393   -0.6571 H       1  LIG   0.0498   0.0000 
32    H10     -2.9226   -0.3144   -3.1986 H       1  LIG   0.0499   0.0000 
33    H11     -3.2897   -2.2328   -4.0984 H       1  LIG   0.0594   0.0000 
34    H12     -1.0317   -2.7114   -4.0864 H       1  LIG   0.0470   0.0000 
35    H13     -0.9848   -3.1476   -2.3741 H       1  LIG   0.0412   0.0000 
36    H14     -1.7661   -4.8610   -4.6457 H       1  LIG   0.0677   0.0000 
37    H15     -1.4256   -5.3027   -2.9631 H       1  LIG   0.0451   0.0000 
38    H16     -3.7373   -5.7424   -2.8619 H       1  LIG   0.0358   0.0000 
39    H17     -1.8338   -1.4003   -0.5891 H       1  LIG   0.0436   0.0000 
40    H18     -0.8886   -0.8584   -1.9802 H       1  LIG   0.0466   0.0000 
41    H19     -1.1562    0.9340   -0.2843 H       1  LIG   0.0420   0.0000 
42    H20     -1.7751    1.3851   -1.8609 H       1  LIG   0.0446   0.0000 
43    H21     -3.3288    0.4876    0.5887 H       1  LIG   0.0478   0.0000 
44    H22     -6.6821    1.0955   -1.0816 H       1  LIG   0.0698   0.0000 
45    H23     -6.1532   -0.1345    0.0264 H       1  LIG   0.0567   0.0000 
46    H24     -5.3933    1.3091    1.6321 H       1  LIG   0.0663   0.0000 
47    H25     -2.7100    2.8057    0.7738 H       1  LIG   0.0760   0.0000 
48    H26     -3.1496    3.1721   -0.9052 H       1  LIG   0.0815   0.0000 
49    H27     -5.0024    2.5185   -2.2938 H       1  LIG   0.0408   0.0000 
50    H28     -3.7363    1.6019   -3.0845 H       1  LIG   0.0416   0.0000 
51    H29     -5.4237    1.0939   -3.2175 H       1  LIG   0.0434   0.0000 
@<TRIPOS>BOND
1     1     2     1
2     1     24    1
3     1     25    1
4     1     26    1
5     2     7     1
6     2     10    1
7     2     3     1
8     3     4     1
9     3     27    1
10    3     28    1
11    4     5     1
12    4     29    1
13    4     30    1
14    5     15    1
15    5     6     1
16    5     31    1
17    6     7     1
18    6     12    1
19    6     32    1
20    7     8     1
21    7     33    1
22    8     9     1
23    8     34    1
24    8     35    1
25    9     10    1
26    9     36    1
27    9     37    1
28    10    11    1
29    10    38    1
30    11    23    1
31    12    13    1
32    12    39    1
33    12    40    1
34    13    14    1
35    13    41    1
36    13    42    1
37    14    20    1
38    14    15    1
39    14    43    1
40    15    16    1
41    15    22    1
42    16    17    1
43    16    44    1
44    16    45    1
45    17    18    1
46    17    21    1
47    17    46    1
48    18    19    2
49    18    20    1
50    20    47    1
51    20    48    1
52    22    49    1
53    22    50    1
54    22    51    1
@<TRIPOS>SUBSTRUCTURE
1   LIG    1    
 
########## Number      : 332
########## Name        : ZINC00001490
########## Description : AM1BCC_CHARGES =  -1.0001 ORIGINAL_CHARGES =  -1.0000

@<TRIPOS>MOLECULE
ZINC00001490
34    35    1     0     0    
SMALL
USER_CHARGES
****
****
@<TRIPOS>ATOM
1     C1       6.6525    0.6823    1.6135 C.3     1  LIG  -0.0422   0.1435 
2     C2       7.2010    1.8019    0.7636 C.ar    1  LIG  -0.0619  -0.1435 
3     C3       8.5939    1.9791    0.7406 C.ar    1  LIG  -0.1517  -0.1500 
4     C4       9.1643    3.0049    0.0012 C.ar    1  LIG  -0.1392  -0.1500 
5     C5       8.3501    3.8413   -0.7528 C.ar    1  LIG  -0.1454  -0.1500 
6     C6       6.9502    3.6767   -0.7808 C.ar    1  LIG  -0.0562  -0.1435 
7     C7       6.3579    2.6814    0.0296 C.ar    1  LIG   0.0453   0.1170 
8     N1       4.9582    2.4610    0.1526 N.am    1  LIG  -0.4723  -0.5470 
9     C8       3.9325    3.3877    0.0724 C.2     1  LIG   0.6841   0.5438 
10    O1       3.9993    4.6018   -0.0672 O.2     1  LIG  -0.6236  -0.5700 
11    C9       2.5918    2.7984    0.2911 C.ar    1  LIG  -0.1132   0.0862 
12    C10      2.3257    2.2295    1.5454 C.ar    1  LIG  -0.1143  -0.1500 
13    C11      1.0577    1.7244    1.8260 C.ar    1  LIG  -0.1640  -0.1500 
14    C12      0.0530    1.7951    0.8643 C.ar    1  LIG  -0.1423  -0.1500 
15    C13      0.3152    2.3670   -0.3823 C.ar    1  LIG  -0.1157  -0.1500 
16    C14      1.5887    2.8732   -0.6894 C.ar    1  LIG  -0.0886  -0.1790 
17    C15      1.8314    3.4416   -2.0544 C.2     1  LIG   0.9117   0.9790 
18    O2       2.8539    3.0205   -2.6770 O.co2   1  LIG  -0.8533  -0.9000 
19    C16      6.2103    4.5582   -1.7487 C.3     1  LIG  -0.0804   0.1435 
20    H1       4.6904    1.5322    0.4629 H       1  LIG   0.3662   0.3700 
21    H2       7.4475    0.1592    2.1561 H       1  LIG   0.0182   0.0000 
22    H3       5.9559    1.0754    2.3611 H       1  LIG   0.0532   0.0000 
23    H4       6.1450   -0.0569    0.9854 H       1  LIG   0.0498   0.0000 
24    H5       9.2441    1.3208    1.3119 H       1  LIG   0.1152   0.1500 
25    H6      10.2415    3.1416   -0.0044 H       1  LIG   0.1126   0.1500 
26    H7       8.8200    4.6177   -1.3539 H       1  LIG   0.1199   0.1500 
27    H8       3.0928    2.1919    2.3148 H       1  LIG   0.1253   0.1500 
28    H9       0.8501    1.2851    2.7974 H       1  LIG   0.1086   0.1500 
29    H10     -0.9371    1.4055    1.0833 H       1  LIG   0.1103   0.1500 
30    H11     -0.4820    2.4065   -1.1218 H       1  LIG   0.1514   0.1500 
31    H12      6.8449    4.8084   -2.6074 H       1  LIG   0.0217   0.0000 
32    H13      5.3400    4.0501   -2.1700 H       1  LIG   0.1038   0.0000 
33    H14      5.9187    5.4967   -1.2696 H       1  LIG   0.0670   0.0000 
34    O3       0.9767    4.2767   -2.4835 O.co2   1  LIG  -0.8001  -0.9000 
@<TRIPOS>BOND
1     1     2     1
2     1     21    1
3     1     22    1
4     1     23    1
5     2     7     ar
6     2     3     ar
7     3     4     ar
8     3     24    1
9     4     5     ar
10    4     25    1
11    5     6     ar
12    5     26    1
13    6     7     ar
14    6     19    1
15    7     8     1
16    8     9     am
17    8     20    1
18    9     10    2
19    9     11    1
20    11    16    ar
21    11    12    ar
22    12    13    ar
23    12    27    1
24    13    14    ar
25    13    28    1
26    14    15    ar
27    14    29    1
28    15    16    ar
29    15    30    1
30    16    17    1
31    17    18    2
32    17    34    1
33    19    31    1
34    19    32    1
35    19    33    1
@<TRIPOS>SUBSTRUCTURE
1   LIG    1    
 
########## Number      : 333
########## Name        : ZINC00001497
########## Description : AM1BCC_CHARGES =  -0.0002 ORIGINAL_CHARGES =   0.0000

@<TRIPOS>MOLECULE
ZINC00001497
31    34    1     0     0    
SMALL
USER_CHARGES
****
****
@<TRIPOS>ATOM
1     C1       7.4873   -9.6717    0.1742 C.3     1  LIG  -0.0769   0.1382 
2     C2       7.0838   -8.3714    0.8081 C.2     1  LIG   0.1590  -0.0382 
3     C3       7.7756   -7.8646    1.8438 C.2     1  LIG  -0.3179  -0.1356 
4     C4       7.3451   -6.5744    2.4449 C.2     1  LIG   0.5961   0.4694 
5     C5       6.1599   -5.9161    1.8546 C.ar    1  LIG  -0.2114   0.0862 
6     C6       5.4994   -6.5240    0.7695 C.ar    1  LIG   0.2082   0.1000 
7     N1       5.9809   -7.7436    0.2706 N.pl3   1  LIG  -0.6110  -0.6000 
8     C7       4.3764   -5.9103    0.2024 C.ar    1  LIG  -0.2210  -0.1500 
9     C8       3.8876   -4.6909    0.6944 C.ar    1  LIG  -0.0043  -0.1500 
10    C9       4.5447   -4.0821    1.7771 C.ar    1  LIG   0.0164   0.2272 
11    C10      5.6604   -4.7018    2.3326 C.ar    1  LIG   0.0033  -0.1516 
12    N2       6.0449   -3.8584    3.3441 N.pl3   1  LIG  -0.2348   0.0332 
13    C11      5.1805   -2.7942    3.3668 C.2     1  LIG   0.3624   0.1865 
14    N3       4.2624   -2.9040    2.4288 N.2     1  LIG  -0.5416  -0.5653 
15    C12      5.2871   -1.7199    4.2993 C.2     1  LIG   0.2191   0.1400 
16    C13      4.4809   -0.5996    4.4195 C.2     1  LIG  -0.1951  -0.1500 
17    C14      4.9917    0.1704    5.4913 C.2     1  LIG  -0.2706  -0.1500 
18    C15      6.0793   -0.5190    5.9668 C.2     1  LIG   0.2590  -0.0100 
19    O1       6.2679   -1.6596    5.2571 O.3     1  LIG  -0.3658  -0.2800 
20    O2       7.9534   -6.0861    3.3887 O.2     1  LIG  -0.6031  -0.5700 
21    H1       6.8315   -4.0007    3.9644 H       1  LIG   0.3448   0.2700 
22    H2       5.5069   -8.1812   -0.5092 H       1  LIG   0.4500   0.4000 
23    H3       8.3692  -10.1099    0.6534 H       1  LIG   0.0699   0.0000 
24    H4       6.6722  -10.3995    0.2471 H       1  LIG   0.0564   0.0000 
25    H5       7.7235   -9.5215   -0.8847 H       1  LIG   0.0573   0.0000 
26    H6       8.6431   -8.3535    2.2704 H       1  LIG   0.1622   0.1500 
27    H7       3.8641   -6.3776   -0.6359 H       1  LIG   0.1349   0.1500 
28    H8       3.0156   -4.2270    0.2442 H       1  LIG   0.1523   0.1500 
29    H9       3.6231   -0.3668    3.8033 H       1  LIG   0.1784   0.1500 
30    H10      4.6131    1.1095    5.8682 H       1  LIG   0.1662   0.1500 
31    H11      6.7878   -0.3413    6.7628 H       1  LIG   0.0574   0.1500 
@<TRIPOS>BOND
1     1     2     1
2     1     23    1
3     1     24    1
4     1     25    1
5     2     7     1
6     2     3     2
7     3     26    1
8     3     4     1
9     4     20    2
10    4     5     1
11    5     11    ar
12    5     6     ar
13    6     8     ar
14    6     7     1
15    7     22    1
16    8     9     ar
17    8     27    1
18    9     10    ar
19    9     28    1
20    10    14    1
21    10    11    ar
22    11    12    1
23    12    13    1
24    12    21    1
25    13    14    2
26    13    15    1
27    15    19    1
28    15    16    2
29    16    17    1
30    16    29    1
31    17    18    2
32    17    30    1
33    18    19    1
34    18    31    1
@<TRIPOS>SUBSTRUCTURE
1   LIG    1    
 
########## Number      : 334
########## Name        : ZINC00001500
########## Description : AM1BCC_CHARGES =   1.0000 ORIGINAL_CHARGES =   1.0000

@<TRIPOS>MOLECULE
ZINC00001500
24    24    1     0     0    
SMALL
USER_CHARGES
****
****
@<TRIPOS>ATOM
1     C1       5.8536  -11.6765   -1.1788 C.3     1  LIG   0.0887   0.5030 
2     N1       4.7183  -10.6529   -1.1495 N.4     1  LIG  -0.6096  -1.0120 
3     C2       3.8433  -10.8636   -2.3801 C.3     1  LIG   0.0907   0.5030 
4     C3       3.8906  -10.8816    0.1096 C.3     1  LIG   0.0881   0.5030 
5     C4       5.3438   -9.2379   -1.1516 C.3     1  LIG   0.1161   0.6830 
6     C5       4.3978   -8.0950   -1.1323 C.2     1  LIG   0.1083  -0.0400 
7     C6       3.8652   -7.3217   -0.1217 C.2     1  LIG  -0.1548  -0.1500 
8     C7       3.0284   -6.3681   -0.7488 C.2     1  LIG  -0.2660  -0.1500 
9     C8       3.1114   -6.6149   -2.0987 C.2     1  LIG   0.3079  -0.0100 
10    O1       3.9444   -7.6591   -2.3429 O.3     1  LIG  -0.3678  -0.2800 
11    H1       6.4754  -11.5286   -0.2908 H       1  LIG   0.0993   0.0000 
12    H2       5.4175  -12.6799   -1.1761 H       1  LIG   0.1020   0.0000 
13    H3       6.4391  -11.5176   -2.0892 H       1  LIG   0.1018   0.0000 
14    H4       2.9808  -10.1946   -2.3210 H       1  LIG   0.1133   0.0000 
15    H5       4.4412  -10.6496   -3.2707 H       1  LIG   0.1016   0.0000 
16    H6       3.5050  -11.9043   -2.3881 H       1  LIG   0.0960   0.0000 
17    H7       3.0314  -10.2059    0.0971 H       1  LIG   0.1088   0.0000 
18    H8       3.5459  -11.9201    0.1117 H       1  LIG   0.0993   0.0000 
19    H9       4.5239  -10.6877    0.9802 H       1  LIG   0.0960   0.0000 
20    H10      6.0007   -9.1895   -0.2744 H       1  LIG   0.1106   0.0000 
21    H11      5.9792   -9.1808   -2.0441 H       1  LIG   0.1169   0.0000 
22    H12      4.0556   -7.4322    0.9365 H       1  LIG   0.1790   0.1500 
23    H13      2.4408   -5.5943   -0.2759 H       1  LIG   0.1930   0.1500 
24    H14      2.6646   -6.1595   -2.9706 H       1  LIG   0.0808   0.1500 
@<TRIPOS>BOND
1     1     2     1
2     1     11    1
3     1     12    1
4     1     13    1
5     2     3     1
6     2     4     1
7     2     5     1
8     3     14    1
9     3     15    1
10    3     16    1
11    4     17    1
12    4     18    1
13    4     19    1
14    5     6     1
15    5     20    1
16    5     21    1
17    6     10    1
18    6     7     2
19    7     8     1
20    7     22    1
21    8     9     2
22    8     23    1
23    9     10    1
24    9     24    1
@<TRIPOS>SUBSTRUCTURE
1   LIG    1    
 
########## Number      : 335
########## Name        : ZINC00001504
########## Description : AM1BCC_CHARGES =  -1.0000 ORIGINAL_CHARGES =  -1.0000

@<TRIPOS>MOLECULE
ZINC00001504
17    17    1     0     0    
SMALL
USER_CHARGES
****
****
@<TRIPOS>ATOM
1     C1       3.4071   -6.6431    0.5426 C.ar    1  LIG  -0.1303  -0.1500 
2     C2       2.3775   -6.3215   -0.3598 C.ar    1  LIG  -0.0932  -0.1790 
3     C3       2.0688   -7.2380   -1.3816 C.ar    1  LIG  -0.1773  -0.1500 
4     C4       2.7734   -8.4386   -1.4915 C.ar    1  LIG   0.0454   0.0825 
5     C5       3.7885   -8.7429   -0.5924 C.ar    1  LIG  -0.0116   0.0825 
6     C6       4.1027   -7.8459    0.4211 C.ar    1  LIG   0.0979   0.0825 
7     O1       5.0959   -8.1179    1.3199 O.3     1  LIG  -0.5102  -0.5325 
8     O2       4.4878   -9.9135   -0.6858 O.3     1  LIG  -0.5352  -0.5325 
9     O3       2.4813   -9.3361   -2.4810 O.3     1  LIG  -0.5425  -0.5325 
10    C7       1.6195   -5.0217   -0.2355 C.2     1  LIG   0.9108   0.9790 
11    O4       1.9513   -4.2415    0.7110 O.co2   1  LIG  -0.8200  -0.9000 
12    H1       5.4653   -8.9877    1.0839 H       1  LIG   0.4173   0.4500 
13    H2       4.1265  -10.4013   -1.4480 H       1  LIG   0.4283   0.4500 
14    H3       1.7549   -8.9756   -3.0184 H       1  LIG   0.4217   0.4500 
15    H4       3.6725   -5.9582    1.3447 H       1  LIG   0.1715   0.1500 
16    H5       1.2772   -7.0143   -2.0929 H       1  LIG   0.1594   0.1500 
17    O5       0.7025   -4.7997   -1.0870 O.co2   1  LIG  -0.8320  -0.9000 
@<TRIPOS>BOND
1     1     6     ar
2     1     2     ar
3     1     15    1
4     2     3     ar
5     2     10    1
6     3     4     ar
7     3     16    1
8     4     5     ar
9     4     9     1
10    5     6     ar
11    5     8     1
12    6     7     1
13    7     12    1
14    8     13    1
15    9     14    1
16    10    11    2
17    10    17    1
@<TRIPOS>SUBSTRUCTURE
1   LIG    1    
 
########## Number      : 336
########## Name        : ZINC00001505
########## Description : AM1BCC_CHARGES =  -0.0003 ORIGINAL_CHARGES =  -0.0000

@<TRIPOS>MOLECULE
ZINC00001505
31    32    1     0     0    
SMALL
USER_CHARGES
****
****
@<TRIPOS>ATOM
1     C1       5.2118   -5.5158    0.4343 C.2     1  LIG   0.4115   0.0365 
2     N1       5.1549   -6.7880    0.7766 N.2     1  LIG  -0.5813  -0.5653 
3     C2       3.9114   -6.9289    1.3226 C.2     1  LIG   0.1759   0.1412 
4     C3       3.2967   -8.1067    1.8738 C.2     1  LIG   0.6511   0.7160 
5     O1       3.8383   -9.2041    1.9283 O.2     1  LIG  -0.5952  -0.5700 
6     N2       2.0053   -7.8320    2.3363 N.am    1  LIG  -0.5084  -0.4900 
7     C4       1.3741   -6.5749    2.2775 C.2     1  LIG   0.6864   0.5600 
8     N3       1.9526   -5.5111    1.7689 N.2     1  LIG  -0.6771  -0.5760 
9     C5       3.2050   -5.7485    1.3137 C.2     1  LIG   0.1274  -0.0256 
10    N4       4.0531   -4.8461    0.7396 N.pl3   1  LIG  -0.2140   0.0476 
11    C6       3.7954   -3.4447    0.4858 C.3     1  LIG   0.2499   0.5356 
12    O2       4.2199   -2.7216    1.6332 O.3     1  LIG  -0.4309  -0.5600 
13    C7       3.9242   -1.3243    1.5628 C.3     1  LIG   0.0694   0.2800 
14    C8       3.8638   -0.8135    3.0069 C.3     1  LIG   0.1212   0.2800 
15    O3       3.4557    0.5450    3.0643 O.3     1  LIG  -0.6013  -0.6800 
16    C9       4.9960   -0.5908    0.7463 C.3     1  LIG   0.1139   0.2800 
17    O4       4.6595    0.7744    0.5464 O.3     1  LIG  -0.6027  -0.6800 
18    N5       0.1068   -6.5273    2.7876 N.pl3   1  LIG  -0.8949  -0.8500 
19    H1       1.4901   -8.6039    2.7444 H       1  LIG   0.3354   0.3700 
20    H2       2.5439    0.5896    2.7275 H       1  LIG   0.4050   0.4000 
21    H3       4.5587    1.1827    1.4247 H       1  LIG   0.4201   0.4000 
22    H4      -0.3452   -7.3436    3.1817 H       1  LIG   0.4127   0.4000 
23    H5      -0.4162   -5.6589    2.7835 H       1  LIG   0.4319   0.4000 
24    H6       6.0572   -5.0278   -0.0318 H       1  LIG   0.0699   0.1500 
25    H7       4.3594   -3.1515   -0.4047 H       1  LIG   0.0567   0.0000 
26    H8       2.7225   -3.3160    0.3087 H       1  LIG   0.0746   0.0000 
27    H9       2.9401   -1.1583    1.1048 H       1  LIG   0.0520   0.0000 
28    H10      3.1651   -1.4142    3.6003 H       1  LIG   0.0500   0.0000 
29    H11      4.8425   -0.9029    3.4913 H       1  LIG   0.0848   0.0000 
30    H12      5.9745   -0.6495    1.2362 H       1  LIG   0.0443   0.0000 
31    H13      5.1158   -1.0458   -0.2410 H       1  LIG   0.0614   0.0000 
@<TRIPOS>BOND
1     1     10    1
2     1     2     2
3     1     24    1
4     2     3     1
5     3     9     2
6     3     4     1
7     4     5     2
8     4     6     am
9     6     7     1
10    6     19    1
11    7     8     2
12    7     18    1
13    8     9     1
14    9     10    1
15    10    11    1
16    11    12    1
17    11    25    1
18    11    26    1
19    12    13    1
20    13    14    1
21    13    16    1
22    13    27    1
23    14    15    1
24    14    28    1
25    14    29    1
26    15    20    1
27    16    17    1
28    16    30    1
29    16    31    1
30    17    21    1
31    18    22    1
32    18    23    1
@<TRIPOS>SUBSTRUCTURE
1   LIG    1    
 
########## Number      : 337
########## Name        : ZINC00001507
########## Description : AM1BCC_CHARGES =  -1.0001 ORIGINAL_CHARGES =  -1.0000

@<TRIPOS>MOLECULE
ZINC00001507
16    16    1     0     0    
SMALL
USER_CHARGES
****
****
@<TRIPOS>ATOM
1     C1       5.3689   -5.9572   -0.4003 C.ar    1  LIG  -0.1523  -0.1500 
2     C2       4.3305   -5.1685   -0.8905 C.ar    1  LIG  -0.2198  -0.1500 
3     C3       3.3246   -5.7451   -1.6737 C.ar    1  LIG   0.1101   0.0825 
4     C4       3.3374   -7.1156   -1.9738 C.ar    1  LIG  -0.0940  -0.1790 
5     C5       4.3954   -7.8964   -1.4784 C.ar    1  LIG  -0.1607  -0.1500 
6     C6       5.3962   -7.3148   -0.6990 C.ar    1  LIG   0.0569   0.0825 
7     O1       6.4289   -8.0628   -0.2074 O.3     1  LIG  -0.5279  -0.5325 
8     C7       2.2680   -7.7725   -2.8018 C.2     1  LIG   0.9199   0.9790 
9     O2       1.0669   -7.4116   -2.6026 O.co2   1  LIG  -0.8040  -0.9000 
10    O3       2.3296   -4.9482   -2.1730 O.3     1  LIG  -0.4622  -0.5325 
11    H1       6.3113   -8.9817   -0.5034 H       1  LIG   0.4077   0.4500 
12    H2       2.4637   -4.0391   -1.8578 H       1  LIG   0.3830   0.4500 
13    H3       6.1504   -5.5095    0.2065 H       1  LIG   0.1218   0.1500 
14    H4       4.3177   -4.1065   -0.6618 H       1  LIG   0.1081   0.1500 
15    H5       4.4296   -8.9612   -1.6971 H       1  LIG   0.1498   0.1500 
16    O4       2.6531   -8.6591   -3.6271 O.co2   1  LIG  -0.8365  -0.9000 
@<TRIPOS>BOND
1     1     6     ar
2     1     2     ar
3     1     13    1
4     2     3     ar
5     2     14    1
6     3     4     ar
7     3     10    1
8     4     5     ar
9     4     8     1
10    5     6     ar
11    5     15    1
12    6     7     1
13    7     11    1
14    8     9     2
15    8     16    1
16    10    12    1
@<TRIPOS>SUBSTRUCTURE
1   LIG    1    
 
########## Number      : 338
########## Name        : ZINC00001511
########## Description : AM1BCC_CHARGES =   0.0001 ORIGINAL_CHARGES =  -0.0000

@<TRIPOS>MOLECULE
ZINC00001511
36    37    1     0     0    
SMALL
USER_CHARGES
****
****
@<TRIPOS>ATOM
1     C1       6.3116  -10.1159    1.2079 C.3     1  LIG  -0.0922   0.0000 
2     C2       5.1670   -9.2564    0.6406 C.3     1  LIG  -0.0771   0.1800 
3     C3       5.0531   -9.5527   -0.8705 C.3     1  LIG  -0.0780   0.0000 
4     C4       3.8372   -9.6584    1.3045 C.3     1  LIG  -0.0922   0.0000 
5     C5       5.4490   -7.7763    0.8562 C.2     1  LIG   0.3679   0.1981 
6     N1       5.5756   -6.8868   -0.1110 N.2     1  LIG  -0.2813  -0.3381 
7     N2       5.8292   -5.6154    0.3628 N.2     1  LIG  -0.3723  -0.3381 
8     C6       5.8864   -5.5829    1.6738 C.2     1  LIG   0.6271   0.5241 
9     S1       5.6369   -7.0930    2.4326 S.3     1  LIG  -0.2469  -0.0800 
10    N3       6.1324   -4.4130    2.4350 N.pl3   1  LIG  -0.8273  -0.7040 
11    S2       6.3682   -2.9629    1.6086 S.o2    1  LIG   1.5435   1.4470 
12    O1       7.6104   -3.0216    0.8626 O.2     1  LIG  -0.6352  -0.6500 
13    O2       5.1345   -2.5639    0.9594 O.2     1  LIG  -0.6353  -0.6500 
14    C7       6.6256   -1.8576    2.9673 C.ar    1  LIG  -0.4816  -0.0090 
15    C8       7.9182   -1.6363    3.4389 C.ar    1  LIG   0.0366  -0.1500 
16    C9       8.1174   -0.7481    4.4981 C.ar    1  LIG  -0.2414  -0.1500 
17    C10      7.0387   -0.0697    5.0798 C.ar    1  LIG   0.2477   0.1000 
18    C11      5.7483   -0.3102    4.5906 C.ar    1  LIG  -0.2415  -0.1500 
19    C12      5.5368   -1.1960    3.5319 C.ar    1  LIG   0.0366  -0.1500 
20    N4       7.2399    0.7930    6.1464 N.pl3   1  LIG  -0.8503  -0.9000 
21    H1       6.1578   -4.4916    3.4555 H       1  LIG   0.4571   0.4200 
22    H2       8.1763    0.9986    6.4680 H       1  LIG   0.4247   0.4000 
23    H3       6.4656    1.3149    6.5348 H       1  LIG   0.4247   0.4000 
24    H4       6.3991  -10.0147    2.2955 H       1  LIG   0.0333   0.0000 
25    H5       6.1502  -11.1788    0.9942 H       1  LIG   0.0439   0.0000 
26    H6       7.2763   -9.8303    0.7720 H       1  LIG   0.0494   0.0000 
27    H7       4.2414   -8.9769   -1.3311 H       1  LIG   0.0530   0.0000 
28    H8       5.9797   -9.2983   -1.3990 H       1  LIG   0.0527   0.0000 
29    H9       4.8498  -10.6143   -1.0530 H       1  LIG   0.0333   0.0000 
30    H10      3.0080   -9.0412    0.9388 H       1  LIG   0.0494   0.0000 
31    H11      3.5919  -10.7059    1.0941 H       1  LIG   0.0439   0.0000 
32    H12      3.8738   -9.5479    2.3941 H       1  LIG   0.0333   0.0000 
33    H13      8.7752   -2.1442    3.0063 H       1  LIG   0.1555   0.1500 
34    H14      9.1278   -0.5863    4.8670 H       1  LIG   0.1418   0.1500 
35    H15      4.8932    0.1965    5.0324 H       1  LIG   0.1417   0.1500 
36    H16      4.5249   -1.3585    3.1723 H       1  LIG   0.1556   0.1500 
@<TRIPOS>BOND
1     1     2     1
2     1     24    1
3     1     25    1
4     1     26    1
5     2     3     1
6     2     4     1
7     2     5     1
8     3     27    1
9     3     28    1
10    3     29    1
11    4     30    1
12    4     31    1
13    4     32    1
14    5     9     1
15    5     6     2
16    6     7     1
17    7     8     2
18    8     9     1
19    8     10    1
20    10    11    1
21    10    21    1
22    11    12    2
23    11    13    2
24    11    14    1
25    14    19    ar
26    14    15    ar
27    15    16    ar
28    15    33    1
29    16    17    ar
30    16    34    1
31    17    18    ar
32    17    20    1
33    18    19    ar
34    18    35    1
35    19    36    1
36    20    22    1
37    20    23    1
@<TRIPOS>SUBSTRUCTURE
1   LIG    1    
 
########## Number      : 339
########## Name        : ZINC00001514
########## Description : AM1BCC_CHARGES =   0.0000 ORIGINAL_CHARGES =   0.0000

@<TRIPOS>MOLECULE
ZINC00001514
40    41    1     0     0    
SMALL
USER_CHARGES
****
****
@<TRIPOS>ATOM
1     C1       6.6405   -9.8699   -1.3291 C.3     1  LIG  -0.0701   0.1435 
2     C2       5.9899   -8.7259   -0.6106 C.ar    1  LIG  -0.0056  -0.1435 
3     C3       5.9261   -7.4594   -1.2069 C.ar    1  LIG  -0.1629  -0.1500 
4     C4       5.2932   -6.3995   -0.5558 C.ar    1  LIG  -0.0126  -0.1500 
5     C5       4.7181   -6.6120    0.6965 C.ar    1  LIG  -0.4061  -0.0090 
6     C6       4.7519   -7.8704    1.2961 C.ar    1  LIG  -0.0122  -0.1500 
7     C7       5.3868   -8.9250    0.6385 C.ar    1  LIG  -0.1622  -0.1500 
8     S1       3.8911   -5.2782    1.5141 S.o2    1  LIG   1.5435   1.4470 
9     O1       2.9190   -5.8591    2.4191 O.2     1  LIG  -0.6341  -0.6500 
10    O2       3.4825   -4.3307    0.4959 O.2     1  LIG  -0.6378  -0.6500 
11    N1       5.1748   -4.6177    2.4150 N.am    1  LIG  -0.6813  -0.7943 
12    C8       5.0416   -3.4910    3.2721 C.2     1  LIG   0.7830   0.8663 
13    O3       3.9783   -2.9016    3.4299 O.2     1  LIG  -0.6108  -0.5700 
14    N2       6.2282   -3.1493    3.8859 N.am    1  LIG  -0.5442  -0.7301 
15    C9       6.3621   -2.0056    4.7806 C.3     1  LIG   0.0977   0.3001 
16    C10      6.6557   -0.7311    3.9800 C.3     1  LIG  -0.1049   0.0000 
17    C11      6.8692    0.4721    4.8948 C.3     1  LIG  -0.0743   0.0000 
18    C12      7.9531    0.2044    5.9348 C.3     1  LIG  -0.0806   0.0000 
19    C13      7.6642   -1.0625    6.7347 C.3     1  LIG  -0.0760   0.0000 
20    C14      7.4550   -2.2679    5.8220 C.3     1  LIG  -0.0813   0.0000 
21    H1       6.0944   -5.0619    2.3330 H       1  LIG   0.3256   0.4200 
22    H2       7.0620   -3.6771    3.6531 H       1  LIG   0.2957   0.3700 
23    H3       7.0665  -10.5861   -0.6185 H       1  LIG   0.0516   0.0000 
24    H4       5.9052  -10.3861   -1.9539 H       1  LIG   0.0609   0.0000 
25    H5       7.4599   -9.5173   -1.9643 H       1  LIG   0.0515   0.0000 
26    H6       6.3700   -7.2914   -2.1853 H       1  LIG   0.1428   0.1500 
27    H7       5.2617   -5.4263   -1.0369 H       1  LIG   0.1568   0.1500 
28    H8       4.2964   -8.0492    2.2658 H       1  LIG   0.1583   0.1500 
29    H9       5.4077   -9.9061    1.1069 H       1  LIG   0.1433   0.1500 
30    H10      5.4041   -1.8766    5.3010 H       1  LIG   0.0937   0.0000 
31    H11      7.5493   -0.8795    3.3594 H       1  LIG   0.0358   0.0000 
32    H12      5.8310   -0.5211    3.2881 H       1  LIG   0.0600   0.0000 
33    H13      7.1425    1.3473    4.2947 H       1  LIG   0.0444   0.0000 
34    H14      5.9278    0.7146    5.4031 H       1  LIG   0.0490   0.0000 
35    H15      8.9234    0.1052    5.4327 H       1  LIG   0.0388   0.0000 
36    H16      8.0312    1.0601    6.6148 H       1  LIG   0.0439   0.0000 
37    H17      8.4934   -1.2608    7.4231 H       1  LIG   0.0433   0.0000 
38    H18      6.7682   -0.9102    7.3489 H       1  LIG   0.0472   0.0000 
39    H19      7.1926   -3.1447    6.4265 H       1  LIG   0.0534   0.0000 
40    H20      8.4006   -2.5102    5.3193 H       1  LIG   0.0368   0.0000 
@<TRIPOS>BOND
1     1     2     1
2     1     23    1
3     1     24    1
4     1     25    1
5     2     7     ar
6     2     3     ar
7     3     4     ar
8     3     26    1
9     4     5     ar
10    4     27    1
11    5     6     ar
12    5     8     1
13    6     7     ar
14    6     28    1
15    7     29    1
16    8     9     2
17    8     10    2
18    8     11    1
19    11    12    am
20    11    21    1
21    12    13    2
22    12    14    am
23    14    15    1
24    14    22    1
25    15    20    1
26    15    16    1
27    15    30    1
28    16    17    1
29    16    31    1
30    16    32    1
31    17    18    1
32    17    33    1
33    17    34    1
34    18    19    1
35    18    35    1
36    18    36    1
37    19    20    1
38    19    37    1
39    19    38    1
40    20    39    1
41    20    40    1
@<TRIPOS>SUBSTRUCTURE
1   LIG    1    
 
########## Number      : 340
########## Name        : ZINC00001515
########## Description : AM1BCC_CHARGES =   0.0002 ORIGINAL_CHARGES =  -0.0000

@<TRIPOS>MOLECULE
ZINC00001515
44    46    1     0     0    
SMALL
USER_CHARGES
****
****
@<TRIPOS>ATOM
1     C1       5.2196   -8.9789    1.3918 C.ar    1  LIG  -0.0130  -0.1500 
2     C2       5.7417  -10.2601    1.5811 C.ar    1  LIG  -0.1510  -0.1500 
3     C3       5.2013  -11.0510    2.5816 C.ar    1  LIG  -0.0167  -0.1435 
4     C4       4.1637  -10.5812    3.3964 C.ar    1  LIG  -0.1127  -0.1435 
5     C5       3.6421   -9.3096    3.2316 C.ar    1  LIG  -0.0122  -0.1500 
6     C6       4.1837   -8.5138    2.2189 C.ar    1  LIG  -0.4016  -0.0090 
7     S1       3.5277   -6.8908    1.9492 S.o2    1  LIG   1.5418   1.4470 
8     O1       3.7735   -6.5485    0.5621 O.2     1  LIG  -0.6377  -0.6500 
9     O2       2.1834   -6.8692    2.4912 O.2     1  LIG  -0.6346  -0.6500 
10    N1       4.5517   -5.9687    2.9477 N.am    1  LIG  -0.6821  -0.7943 
11    C7       4.4496   -4.5585    3.0976 C.2     1  LIG   0.7845   0.8663 
12    O3       3.6054   -3.8901    2.5114 O.2     1  LIG  -0.6104  -0.5700 
13    N2       5.3968   -4.0476    3.9597 N.am    1  LIG  -0.5464  -0.7301 
14    C8       5.5259   -2.6241    4.2489 C.3     1  LIG   0.0994   0.3001 
15    C9       6.4191   -1.9444    3.2039 C.3     1  LIG  -0.1046   0.0000 
16    C10      6.6291   -0.4656    3.5187 C.3     1  LIG  -0.0744   0.0000 
17    C11      7.1681   -0.2609    4.9314 C.3     1  LIG  -0.0806   0.0000 
18    C12      6.2816   -0.9347    5.9746 C.3     1  LIG  -0.0761   0.0000 
19    C13      6.0740   -2.4147    5.6643 C.3     1  LIG  -0.0821   0.0000 
20    C14      3.7906  -11.6025    4.4247 C.3     1  LIG  -0.0361   0.1435 
21    C15      4.4014  -12.8739    3.8169 C.3     1  LIG  -0.0807   0.0000 
22    C16      5.6173  -12.4290    2.9908 C.3     1  LIG  -0.0494   0.1435 
23    H1       5.2812   -6.4631    3.4704 H       1  LIG   0.3259   0.4200 
24    H2       6.0782   -4.6826    4.3601 H       1  LIG   0.2961   0.3700 
25    H3       5.6349   -8.3527    0.6068 H       1  LIG   0.1554   0.1500 
26    H4       6.5514  -10.6227    0.9565 H       1  LIG   0.1449   0.1500 
27    H5       2.8460   -8.9556    3.8777 H       1  LIG   0.1610   0.1500 
28    H6       4.5232   -2.1808    4.1908 H       1  LIG   0.0937   0.0000 
29    H7       7.3931   -2.4496    3.1624 H       1  LIG   0.0359   0.0000 
30    H8       5.9764   -2.0451    2.2055 H       1  LIG   0.0595   0.0000 
31    H9       7.3241   -0.0293    2.7924 H       1  LIG   0.0443   0.0000 
32    H10      5.6770    0.0685    3.4106 H       1  LIG   0.0488   0.0000 
33    H11      8.1838   -0.6703    4.9969 H       1  LIG   0.0388   0.0000 
34    H12      7.2413    0.8111    5.1466 H       1  LIG   0.0439   0.0000 
35    H13      6.7327   -0.8260    6.9673 H       1  LIG   0.0435   0.0000 
36    H14      5.3086   -0.4292    6.0085 H       1  LIG   0.0473   0.0000 
37    H15      5.3869   -2.8510    6.3995 H       1  LIG   0.0534   0.0000 
38    H16      7.0280   -2.9462    5.7786 H       1  LIG   0.0367   0.0000 
39    H17      4.2576  -11.3587    5.3844 H       1  LIG   0.0575   0.0000 
40    H18      2.7082  -11.6990    4.5467 H       1  LIG   0.0629   0.0000 
41    H19      4.6620  -13.6168    4.5772 H       1  LIG   0.0488   0.0000 
42    H20      3.6650  -13.3413    3.1482 H       1  LIG   0.0512   0.0000 
43    H21      5.7812  -13.0894    2.1348 H       1  LIG   0.0652   0.0000 
44    H22      6.5200  -12.3821    3.6086 H       1  LIG   0.0622   0.0000 
@<TRIPOS>BOND
1     1     6     ar
2     1     2     ar
3     1     25    1
4     2     3     ar
5     2     26    1
6     3     22    1
7     3     4     ar
8     4     5     ar
9     4     20    1
10    5     6     ar
11    5     27    1
12    6     7     1
13    7     8     2
14    7     9     2
15    7     10    1
16    10    11    am
17    10    23    1
18    11    12    2
19    11    13    am
20    13    14    1
21    13    24    1
22    14    19    1
23    14    15    1
24    14    28    1
25    15    16    1
26    15    29    1
27    15    30    1
28    16    17    1
29    16    31    1
30    16    32    1
31    17    18    1
32    17    33    1
33    17    34    1
34    18    19    1
35    18    35    1
36    18    36    1
37    19    37    1
38    19    38    1
39    20    21    1
40    20    39    1
41    20    40    1
42    21    22    1
43    21    41    1
44    21    42    1
45    22    43    1
46    22    44    1
@<TRIPOS>SUBSTRUCTURE
1   LIG    1    
 
########## Number      : 341
########## Name        : ZINC00001517
########## Description : AM1BCC_CHARGES =   0.0001 ORIGINAL_CHARGES =  -0.0000

@<TRIPOS>MOLECULE
ZINC00001517
39    40    1     0     0    
SMALL
USER_CHARGES
****
****
@<TRIPOS>ATOM
1     C1       3.6779   -8.4338    0.8685 C.ar    1  LIG  -0.0084  -0.1500 
2     C2       4.0324   -9.7663    0.6564 C.ar    1  LIG  -0.1547  -0.1500 
3     C3       3.9513  -10.6815    1.7072 C.ar    1  LIG   0.0773   0.1770 
4     C4       3.5171  -10.2762    2.9704 C.ar    1  LIG  -0.1556  -0.1500 
5     C5       3.1615   -8.9448    3.1873 C.ar    1  LIG  -0.0099  -0.1500 
6     C6       3.2514   -8.0317    2.1353 C.ar    1  LIG  -0.3963  -0.0090 
7     S1       2.7742   -6.3476    2.4001 S.o2    1  LIG   1.5393   1.4470 
8     O1       1.8546   -6.3285    3.5205 O.2     1  LIG  -0.6341  -0.6500 
9     O2       2.3893   -5.7988    1.1148 O.2     1  LIG  -0.6303  -0.6500 
10    N1       4.2601   -5.6712    2.8793 N.am    1  LIG  -0.6857  -0.7943 
11    C7       4.4316   -4.2991    3.2195 C.2     1  LIG   0.7649   0.8663 
12    O3       3.5063   -3.4943    3.1910 O.2     1  LIG  -0.5575  -0.5700 
13    N2       5.7330   -4.0023    3.5740 N.am    1  LIG  -0.3639  -0.4210 
14    N3       6.0670   -2.6935    3.9343 N.3     1  LIG  -0.4986  -0.5490 
15    C8       7.0465   -2.1511    2.9863 C.3     1  LIG   0.1771   0.2700 
16    C9       7.0604   -0.6236    2.9958 C.3     1  LIG  -0.0776   0.0000 
17    C10      7.9687    0.0219    4.0374 C.3     1  LIG  -0.0792   0.0000 
18    C11      8.0839   -0.6781    5.3857 C.3     1  LIG  -0.0787   0.0000 
19    C12      6.7844   -1.2786    5.9071 C.3     1  LIG  -0.0721   0.0000 
20    C13      6.4942   -2.6694    5.3358 C.3     1  LIG   0.1422   0.2700 
21    Cl1      4.3895  -12.3258    1.4425 Cl      1  LIG  -0.0716  -0.1770 
22    H1       5.0758   -6.2896    2.9244 H       1  LIG   0.3275   0.4200 
23    H2       6.4594   -4.7103    3.5778 H       1  LIG   0.2609   0.3700 
24    H3       3.7444   -7.7306    0.0432 H       1  LIG   0.1645   0.1500 
25    H4       4.3676  -10.0788   -0.3292 H       1  LIG   0.1586   0.1500 
26    H5       3.4503  -10.9865    3.7904 H       1  LIG   0.1580   0.1500 
27    H6       2.8246   -8.6410    4.1742 H       1  LIG   0.1631   0.1500 
28    H7       8.0489   -2.5696    3.1412 H       1  LIG   0.0198   0.0000 
29    H8       6.7444   -2.4462    1.9715 H       1  LIG   0.0664   0.0000 
30    H9       7.3792   -0.2670    2.0076 H       1  LIG   0.0451   0.0000 
31    H10      6.0367   -0.2459    3.1211 H       1  LIG   0.0701   0.0000 
32    H11      8.9793    0.1146    3.6191 H       1  LIG   0.0362   0.0000 
33    H12      7.6220    1.0511    4.1969 H       1  LIG   0.0426   0.0000 
34    H13      8.8565   -1.4553    5.3315 H       1  LIG   0.0353   0.0000 
35    H14      8.4524    0.0561    6.1133 H       1  LIG   0.0414   0.0000 
36    H15      6.8783   -1.3871    6.9954 H       1  LIG   0.0447   0.0000 
37    H16      5.9396   -0.6001    5.7382 H       1  LIG   0.0700   0.0000 
38    H17      5.6864   -3.0972    5.9452 H       1  LIG   0.0549   0.0000 
39    H18      7.3678   -3.3185    5.4857 H       1  LIG   0.0144   0.0000 
@<TRIPOS>BOND
1     1     6     ar
2     1     2     ar
3     1     24    1
4     2     3     ar
5     2     25    1
6     3     4     ar
7     3     21    1
8     4     5     ar
9     4     26    1
10    5     6     ar
11    5     27    1
12    6     7     1
13    7     8     2
14    7     9     2
15    7     10    1
16    10    11    am
17    10    22    1
18    11    12    2
19    11    13    am
20    13    14    1
21    13    23    1
22    14    20    1
23    14    15    1
24    15    16    1
25    15    28    1
26    15    29    1
27    16    17    1
28    16    30    1
29    16    31    1
30    17    18    1
31    17    32    1
32    17    33    1
33    18    19    1
34    18    34    1
35    18    35    1
36    19    20    1
37    19    36    1
38    19    37    1
39    20    38    1
40    20    39    1
@<TRIPOS>SUBSTRUCTURE
1   LIG    1    
 
########## Number      : 342
########## Name        : ZINC00001519
########## Description : AM1BCC_CHARGES =  -0.0001 ORIGINAL_CHARGES =  -0.0000

@<TRIPOS>MOLECULE
ZINC00001519
38    39    1     0     0    
SMALL
USER_CHARGES
****
****
@<TRIPOS>ATOM
1     C1       5.1247  -12.1969   -0.3772 C.3     1  LIG  -0.0931   0.0000 
2     C2       5.4558  -10.7335   -0.0737 C.3     1  LIG  -0.0629   0.0000 
3     C3       6.2666  -10.1394   -1.2289 C.3     1  LIG  -0.0927   0.0000 
4     C4       4.1574   -9.9477    0.1864 C.3     1  LIG  -0.1085   0.1800 
5     C5       4.4051   -8.5628    0.6949 C.2     1  LIG   0.3612   0.1981 
6     N1       4.4282   -7.4810   -0.0563 N.2     1  LIG  -0.2806  -0.3381 
7     N2       4.6779   -6.3399    0.6820 N.2     1  LIG  -0.3715  -0.3381 
8     C6       4.8261   -6.6046    1.9606 C.2     1  LIG   0.6219   0.5241 
9     S1       4.6734   -8.2597    2.3664 S.3     1  LIG  -0.2363  -0.0800 
10    N3       5.0902   -5.6291    2.9543 N.pl3   1  LIG  -0.8289  -0.7040 
11    S2       5.2380   -4.0216    2.4691 S.o2    1  LIG   1.5395   1.4470 
12    O1       6.4284   -3.8633    1.6563 O.2     1  LIG  -0.6300  -0.6500 
13    O2       3.9549   -3.5316    2.0039 O.2     1  LIG  -0.6315  -0.6500 
14    C7       5.5617   -3.2449    4.0269 C.ar    1  LIG  -0.4509  -0.0090 
15    C8       6.8773   -3.0972    4.4610 C.ar    1  LIG   0.0152  -0.1500 
16    C9       7.1257   -2.4653    5.6800 C.ar    1  LIG  -0.1878  -0.1500 
17    C10      6.0709   -1.9766    6.4605 C.ar    1  LIG   0.1963   0.0825 
18    C11      4.7568   -2.1257    6.0075 C.ar    1  LIG  -0.2387  -0.1500 
19    C12      4.4996   -2.7577    4.7876 C.ar    1  LIG   0.0276  -0.1500 
20    O3       6.4514   -1.3789    7.6328 O.3     1  LIG  -0.3175  -0.3625 
21    C13      5.4124   -0.8633    8.4567 C.3     1  LIG   0.1092   0.2800 
22    H1       5.1926   -5.9374    3.9252 H       1  LIG   0.4582   0.4200 
23    H2       4.5845  -12.6549    0.4581 H       1  LIG   0.0314   0.0000 
24    H3       4.5023  -12.2862   -1.2741 H       1  LIG   0.0384   0.0000 
25    H4       6.0391  -12.7774   -0.5398 H       1  LIG   0.0398   0.0000 
26    H5       6.0824  -10.7127    0.8271 H       1  LIG   0.0457   0.0000 
27    H6       6.5985   -9.1217   -1.0009 H       1  LIG   0.0492   0.0000 
28    H7       7.1630  -10.7390   -1.4212 H       1  LIG   0.0341   0.0000 
29    H8       5.6782  -10.1073   -2.1521 H       1  LIG   0.0408   0.0000 
30    H9       3.5678   -9.8860   -0.7374 H       1  LIG   0.0815   0.0000 
31    H10      3.5336  -10.4895    0.9093 H       1  LIG   0.0529   0.0000 
32    H11      7.7141   -3.4667    3.8755 H       1  LIG   0.1601   0.1500 
33    H12      8.1525   -2.3533    6.0209 H       1  LIG   0.1612   0.1500 
34    H13      3.9089   -1.7602    6.5786 H       1  LIG   0.1488   0.1500 
35    H14      3.4707   -2.8626    4.4551 H       1  LIG   0.1597   0.1500 
36    H15      5.8777   -0.4226    9.3437 H       1  LIG   0.0759   0.0000 
37    H16      4.8580   -0.0707    7.9434 H       1  LIG   0.0430   0.0000 
38    H17      4.7431   -1.6616    8.7940 H       1  LIG   0.0392   0.0000 
@<TRIPOS>BOND
1     1     2     1
2     1     23    1
3     1     24    1
4     1     25    1
5     2     3     1
6     2     4     1
7     2     26    1
8     3     27    1
9     3     28    1
10    3     29    1
11    4     5     1
12    4     30    1
13    4     31    1
14    5     9     1
15    5     6     2
16    6     7     1
17    7     8     2
18    8     9     1
19    8     10    1
20    10    11    1
21    10    22    1
22    11    12    2
23    11    13    2
24    11    14    1
25    14    19    ar
26    14    15    ar
27    15    16    ar
28    15    32    1
29    16    17    ar
30    16    33    1
31    17    18    ar
32    17    20    1
33    18    19    ar
34    18    34    1
35    19    35    1
36    20    21    1
37    21    36    1
38    21    37    1
39    21    38    1
@<TRIPOS>SUBSTRUCTURE
1   LIG    1    
 
########## Number      : 343
########## Name        : ZINC00001521
########## Description : AM1BCC_CHARGES =   0.0001 ORIGINAL_CHARGES =   0.0000

@<TRIPOS>MOLECULE
ZINC00001521
17    17    1     0     0    
SMALL
USER_CHARGES
****
****
@<TRIPOS>ATOM
1     C1       4.6324   -5.3517    0.7776 C.3     1  LIG   0.1108   0.2800 
2     O1       4.1853   -6.6081    0.2831 O.3     1  LIG  -0.3042  -0.3625 
3     C2       2.9405   -6.6464   -0.2887 C.ar    1  LIG   0.1009   0.0825 
4     C3       2.0808   -5.5516   -0.4227 C.ar    1  LIG  -0.1755  -0.1500 
5     C4       0.8284   -5.7071   -1.0251 C.ar    1  LIG  -0.1301  -0.1500 
6     C5       0.4240   -6.9540   -1.4981 C.ar    1  LIG  -0.1254  -0.1500 
7     C6       1.2704   -8.0525   -1.3710 C.ar    1  LIG  -0.1882  -0.1500 
8     C7       2.5201   -7.8936   -0.7689 C.ar    1  LIG   0.1014   0.0825 
9     O2       3.3564   -8.9720   -0.6417 O.3     1  LIG  -0.4763  -0.5325 
10    H1       2.9195   -9.7531   -1.0210 H       1  LIG   0.4138   0.4500 
11    H2       5.6331   -5.4951    1.1967 H       1  LIG   0.0686   0.0000 
12    H3       4.7124   -4.6155   -0.0291 H       1  LIG   0.0312   0.0000 
13    H4       3.9838   -4.9905    1.5824 H       1  LIG   0.0313   0.0000 
14    H5       2.3524   -4.5617   -0.0696 H       1  LIG   0.1392   0.1500 
15    H6       0.1671   -4.8505   -1.1248 H       1  LIG   0.1337   0.1500 
16    H7      -0.5500   -7.0684   -1.9651 H       1  LIG   0.1341   0.1500 
17    H8       0.9477   -9.0208   -1.7422 H       1  LIG   0.1348   0.1500 
@<TRIPOS>BOND
1     1     2     1
2     1     11    1
3     1     12    1
4     1     13    1
5     2     3     1
6     3     8     ar
7     3     4     ar
8     4     5     ar
9     4     14    1
10    5     6     ar
11    5     15    1
12    6     7     ar
13    6     16    1
14    7     8     ar
15    7     17    1
16    8     9     1
17    9     10    1
@<TRIPOS>SUBSTRUCTURE
1   LIG    1    
 
########## Number      : 344
########## Name        : ZINC00001522
########## Description : AM1BCC_CHARGES =   0.9998 ORIGINAL_CHARGES =   0.9999

@<TRIPOS>MOLECULE
ZINC00001522
23    23    1     0     0    
SMALL
USER_CHARGES
****
****
@<TRIPOS>ATOM
1     C1       5.0590   -7.9134    1.0314 C.ar    1  LIG  -0.0738  -0.1500 
2     C2       5.2843   -7.2095   -0.1479 C.ar    1  LIG  -0.1164  -0.1500 
3     C3       4.3453   -6.2762   -0.6004 C.ar    1  LIG   0.0486   0.1770 
4     C4       3.1675   -6.0380    0.1317 C.ar    1  LIG  -0.1702   0.0862 
5     C5       2.9457   -6.7618    1.3172 C.ar    1  LIG   0.0641   0.1770 
6     C6       3.8938   -7.6921    1.7609 C.ar    1  LIG  -0.1224  -0.1500 
7     Cl1      1.5059   -6.6187    2.2670 Cl      1  LIG  -0.0737  -0.1770 
8     C7       2.1992   -5.0407   -0.3804 C.2     1  LIG   0.4916   0.3038 
9     N1       1.4954   -4.2885    0.4024 N.2     1  LIG  -0.5376  -0.3180 
10    N2       0.6836   -3.4335   -0.2566 N.pl3   1  LIG  -0.1850  -0.6487 
11    C8      -0.1296   -2.6047    0.5057 C.cat   1  LIG   0.5481   1.2000 
12    N3      -0.9724   -1.7107   -0.1223 N.pl3   1  LIG  -0.5144  -0.9667 
13    N4      -0.1081   -2.6624    1.8845 N.pl3   1  LIG  -0.4700  -0.9667 
14    Cl2      4.7313   -5.4226   -2.0569 Cl      1  LIG  -0.0633  -0.1770 
15    H1       0.6520   -3.3835   -1.2725 H       1  LIG   0.3083   0.4500 
16    H2      -1.5772   -1.0942    0.4130 H       1  LIG   0.3286   0.4500 
17    H3      -1.0118   -1.6439   -1.1352 H       1  LIG   0.3258   0.4500 
18    H4      -0.6969   -2.0628    2.4539 H       1  LIG   0.3232   0.4500 
19    H5       0.5067   -3.3205    2.3566 H       1  LIG   0.3504   0.4500 
20    H6       5.7898   -8.6376    1.3806 H       1  LIG   0.1654   0.1500 
21    H7       6.2001   -7.3933   -0.7049 H       1  LIG   0.1723   0.1500 
22    H8       3.7302   -8.2604    2.6740 H       1  LIG   0.1701   0.1500 
23    H9       2.1154   -4.9401   -1.4768 H       1  LIG   0.0301   0.0600 
@<TRIPOS>BOND
1     1     6     ar
2     1     2     ar
3     1     20    1
4     2     3     ar
5     2     21    1
6     3     4     ar
7     3     14    1
8     4     5     ar
9     4     8     1
10    5     6     ar
11    5     7     1
12    6     22    1
13    8     9     2
14    8     23    1
15    9     10    1
16    10    11    1
17    10    15    1
18    11    12    1
19    11    13    2
20    12    16    1
21    12    17    1
22    13    18    1
23    13    19    1
@<TRIPOS>SUBSTRUCTURE
1   LIG    1    
 
########## Number      : 345
########## Name        : ZINC00001531
########## Description : AM1BCC_CHARGES =   0.0000 ORIGINAL_CHARGES =   0.0000

@<TRIPOS>MOLECULE
ZINC00001531
28    28    1     0     0    
SMALL
USER_CHARGES
****
****
@<TRIPOS>ATOM
1     C1       4.4566   -3.6459   -1.2648 C.1     1  LIG  -0.1633  -0.1770 
2     C2       3.9769   -4.4172   -0.4797 C.1     1  LIG  -0.1301  -0.2000 
3     C3       3.3906   -5.3586    0.4900 C.3     1  LIG  -0.0381   0.2000 
4     C4       2.1393   -6.0942   -0.0506 C.3     1  LIG   0.1972   0.2800 
5     C5       2.5163   -6.9751   -1.2689 C.3     1  LIG  -0.0722   0.0000 
6     C6       1.3424   -7.8181   -1.7742 C.3     1  LIG  -0.0755   0.0000 
7     C7       0.7412   -8.6737   -0.6660 C.3     1  LIG  -0.0788   0.0000 
8     C8       0.3568   -7.8325    0.5452 C.3     1  LIG  -0.0745   0.0000 
9     C9       1.5399   -7.0048    1.0474 C.3     1  LIG  -0.1074   0.0000 
10    O1       1.1385   -5.1522   -0.5425 O.3     1  LIG  -0.4397  -0.4300 
11    C10      0.5705   -4.2083    0.2525 C.2     1  LIG   0.7425   0.7800 
12    O2       0.8048   -4.0223    1.4394 O.2     1  LIG  -0.6003  -0.5700 
13    N1      -0.3274   -3.4699   -0.4704 N.am    1  LIG  -0.6384  -0.8000 
14    H1      -0.8497   -2.7159   -0.0400 H       1  LIG   0.3229   0.3700 
15    H2      -0.4886   -3.6596   -1.4526 H       1  LIG   0.3171   0.3700 
16    H3       4.8812   -2.9614   -1.9615 H       1  LIG   0.1631   0.1770 
17    H4       3.1449   -4.8019    1.4009 H       1  LIG   0.1022   0.0000 
18    H5       4.1520   -6.0937    0.7804 H       1  LIG   0.0679   0.0000 
19    H6       2.8532   -6.3488   -2.1039 H       1  LIG   0.0617   0.0000 
20    H7       3.3470   -7.6421   -1.0050 H       1  LIG   0.0510   0.0000 
21    H8       0.5682   -7.1631   -2.1920 H       1  LIG   0.0514   0.0000 
22    H9       1.6825   -8.4641   -2.5918 H       1  LIG   0.0401   0.0000 
23    H10     -0.1407   -9.2029   -1.0440 H       1  LIG   0.0412   0.0000 
24    H11      1.4666   -9.4388   -0.3629 H       1  LIG   0.0371   0.0000 
25    H12     -0.4788   -7.1716    0.2859 H       1  LIG   0.0490   0.0000 
26    H13      0.0031   -8.4892    1.3483 H       1  LIG   0.0432   0.0000 
27    H14      2.3154   -7.6861    1.4216 H       1  LIG   0.0486   0.0000 
28    H15      1.2045   -6.4162    1.9076 H       1  LIG   0.0821   0.0000 
@<TRIPOS>BOND
1     1     2     3
2     1     16    1
3     2     3     1
4     3     4     1
5     3     17    1
6     3     18    1
7     4     9     1
8     4     5     1
9     4     10    1
10    5     6     1
11    5     19    1
12    5     20    1
13    6     7     1
14    6     21    1
15    6     22    1
16    7     8     1
17    7     23    1
18    7     24    1
19    8     9     1
20    8     25    1
21    8     26    1
22    9     27    1
23    9     28    1
24    10    11    1
25    11    12    2
26    11    13    am
27    13    14    1
28    13    15    1
@<TRIPOS>SUBSTRUCTURE
1   LIG    1    
 
########## Number      : 346
########## Name        : ZINC00001533
########## Description : AM1BCC_CHARGES =  -2.0001 ORIGINAL_CHARGES =  -2.0000

@<TRIPOS>MOLECULE
ZINC00001533
32    34    1     0     0    
SMALL
USER_CHARGES
****
****
@<TRIPOS>ATOM
1     C1       4.9263  -11.6916    0.0405 C.ar    1  LIG  -0.1916  -0.1500 
2     C2       6.0977  -10.9954    0.2938 C.ar    1  LIG  -0.1468  -0.1500 
3     C3       6.0344   -9.7045    0.8187 C.ar    1  LIG  -0.1878  -0.1500 
4     C4       4.8214   -9.0825    1.0972 C.ar    1  LIG   0.3930   0.3100 
5     C5       3.6223   -9.7772    0.8332 C.ar    1  LIG  -0.1379   0.0000 
6     C6       3.6988  -11.0900    0.3097 C.ar    1  LIG  -0.0687  -0.1500 
7     C7       2.4111   -9.1092    1.1311 C.ar    1  LIG  -0.0681  -0.1790 
8     C8       2.4491   -7.8220    1.6802 C.ar    1  LIG  -0.2444  -0.1500 
9     C9       3.6769   -7.2126    1.9053 C.ar    1  LIG   0.5008   0.3100 
10    N1       4.8423   -7.8413    1.6133 N.ar    1  LIG  -0.6953  -0.6200 
11    C10      3.8082   -5.8540    2.4676 C.ar    1  LIG  -0.2183   0.0000 
12    C11      2.8835   -4.8408    2.1715 C.ar    1  LIG  -0.0895  -0.1500 
13    C12      3.0224   -3.5604    2.7074 C.ar    1  LIG  -0.2218  -0.1500 
14    C13      4.0924   -3.2654    3.5510 C.ar    1  LIG   0.1771   0.0825 
15    C14      5.0478   -4.2386    3.8775 C.ar    1  LIG  -0.2281  -0.1790 
16    C15      4.8835   -5.5248    3.3210 C.ar    1  LIG  -0.0253  -0.1500 
17    C16      6.2235   -3.9591    4.7889 C.2     1  LIG   0.9165   0.9790 
18    O1       7.0255   -4.9164    5.0242 O.co2   1  LIG  -0.8112  -0.9000 
19    O2       4.1429   -1.9818    4.0269 O.3     1  LIG  -0.5626  -0.5325 
20    C17      1.0660   -9.7246    0.8816 C.2     1  LIG   0.9062   0.9790 
21    O3       0.2912   -9.8154    1.8829 O.co2   1  LIG  -0.8211  -0.9000 
22    H1       4.9304   -1.9023    4.5979 H       1  LIG   0.4773   0.4500 
23    H2       4.9632  -12.6990   -0.3628 H       1  LIG   0.1035   0.1500 
24    H3       7.0612  -11.4525    0.0890 H       1  LIG   0.0988   0.1500 
25    H4       6.9655   -9.1761    1.0166 H       1  LIG   0.1296   0.1500 
26    H5       2.7974  -11.6643    0.1088 H       1  LIG   0.1752   0.1500 
27    H6       1.5188   -7.3168    1.9262 H       1  LIG   0.1519   0.1500 
28    H7       2.0444   -5.0282    1.5052 H       1  LIG   0.1218   0.1500 
29    H8       2.2927   -2.7938    2.4600 H       1  LIG   0.1178   0.1500 
30    H9       5.6102   -6.2998    3.5653 H       1  LIG   0.1676   0.1500 
31    O4       6.3288   -2.7820    5.2585 O.co2   1  LIG  -0.8768  -0.9000 
32    O5       0.8100  -10.0832   -0.3087 O.co2   1  LIG  -0.8419  -0.9000 
@<TRIPOS>BOND
1     1     6     ar
2     1     2     ar
3     1     23    1
4     2     3     ar
5     2     24    1
6     3     4     ar
7     3     25    1
8     4     10    ar
9     4     5     ar
10    5     6     ar
11    5     7     ar
12    6     26    1
13    7     8     ar
14    7     20    1
15    8     9     ar
16    8     27    1
17    9     10    ar
18    9     11    1
19    11    16    ar
20    11    12    ar
21    12    13    ar
22    12    28    1
23    13    14    ar
24    13    29    1
25    14    15    ar
26    14    19    1
27    15    16    ar
28    15    17    1
29    16    30    1
30    17    18    2
31    17    31    1
32    19    22    1
33    20    21    2
34    20    32    1
@<TRIPOS>SUBSTRUCTURE
1   LIG    1    
 
########## Number      : 347
########## Name        : ZINC00001536
########## Description : AM1BCC_CHARGES =   0.0001 ORIGINAL_CHARGES =  -0.0000

@<TRIPOS>MOLECULE
ZINC00001536
38    39    1     0     0    
SMALL
USER_CHARGES
****
****
@<TRIPOS>ATOM
1     C1       5.5102  -10.1123   -0.7860 C.2     1  LIG  -0.2222  -0.3000 
2     C2       5.1760   -9.0729   -0.0122 C.2     1  LIG  -0.1602  -0.2882 
3     C3       5.7854   -8.7967    1.3311 C.3     1  LIG  -0.0035   0.2817 
4     C4       6.5286   -7.4841    1.3667 C.ar    1  LIG  -0.1129  -0.1435 
5     C5       7.8737   -7.4216    0.9871 C.ar    1  LIG  -0.0881  -0.1500 
6     C6       8.5522   -6.2049    1.0012 C.ar    1  LIG  -0.1593  -0.1500 
7     C7       7.8898   -5.0388    1.3892 C.ar    1  LIG   0.1372   0.0825 
8     C8       6.5393   -5.0631    1.7770 C.ar    1  LIG  -0.1182   0.0000 
9     C9       5.8728   -6.3032    1.7517 C.ar    1  LIG  -0.0783  -0.1500 
10    C10      5.8099   -3.8619    2.2086 C.ar    1  LIG  -0.0862   0.0000 
11    C11      4.7921   -3.3170    1.4145 C.ar    1  LIG  -0.0819  -0.1500 
12    C12      4.0978   -2.1815    1.8307 C.ar    1  LIG  -0.1583  -0.1500 
13    C13      4.4105   -1.5755    3.0478 C.ar    1  LIG   0.1383   0.0825 
14    C14      5.4277   -2.0861    3.8655 C.ar    1  LIG  -0.1562  -0.1435 
15    C15      6.1118   -3.2374    3.4324 C.ar    1  LIG  -0.0901  -0.1500 
16    C16      5.8044   -1.4714    5.1939 C.3     1  LIG  -0.0118   0.2817 
17    C17      4.8817   -1.8836    6.3036 C.2     1  LIG  -0.1700  -0.2882 
18    C18      4.1775   -1.0257    7.0511 C.2     1  LIG  -0.2258  -0.3000 
19    O1       3.6698   -0.4737    3.3789 O.3     1  LIG  -0.4988  -0.5325 
20    O2       8.6304   -3.8859    1.3515 O.3     1  LIG  -0.4998  -0.5325 
21    H1       3.8993   -0.1819    4.2751 H       1  LIG   0.4270   0.4500 
22    H2       8.0553   -3.1253    1.5356 H       1  LIG   0.4278   0.4500 
23    H3       5.0276  -10.2611   -1.7460 H       1  LIG   0.1128   0.1500 
24    H4       6.2657  -10.8281   -0.4811 H       1  LIG   0.1099   0.1500 
25    H5       4.4075   -8.3885   -0.3635 H       1  LIG   0.1222   0.1500 
26    H6       4.9890   -8.7889    2.0860 H       1  LIG   0.0545   0.0000 
27    H7       6.4657   -9.6039    1.6321 H       1  LIG   0.0508   0.0000 
28    H8       8.3999   -8.3205    0.6754 H       1  LIG   0.1361   0.1500 
29    H9       9.5962   -6.1685    0.7014 H       1  LIG   0.1507   0.1500 
30    H10      4.8244   -6.3536    2.0440 H       1  LIG   0.1374   0.1500 
31    H11      4.5319   -3.7730    0.4616 H       1  LIG   0.1434   0.1500 
32    H12      3.3095   -1.7748    1.2026 H       1  LIG   0.1535   0.1500 
33    H13      6.8951   -3.6584    4.0624 H       1  LIG   0.1413   0.1500 
34    H14      6.8234   -1.7771    5.4646 H       1  LIG   0.0668   0.0000 
35    H15      5.8550   -0.3803    5.0905 H       1  LIG   0.0507   0.0000 
36    H16      4.7975   -2.9471    6.5154 H       1  LIG   0.1314   0.1500 
37    H17      3.5325   -1.3889    7.8442 H       1  LIG   0.1195   0.1500 
38    H18      4.2307    0.0457    6.8919 H       1  LIG   0.1104   0.1500 
@<TRIPOS>BOND
1     1     2     2
2     1     23    1
3     1     24    1
4     2     3     1
5     2     25    1
6     3     4     1
7     3     26    1
8     3     27    1
9     4     9     ar
10    4     5     ar
11    5     6     ar
12    5     28    1
13    6     7     ar
14    6     29    1
15    7     8     ar
16    7     20    1
17    8     9     ar
18    8     10    1
19    9     30    1
20    10    15    ar
21    10    11    ar
22    11    12    ar
23    11    31    1
24    12    13    ar
25    12    32    1
26    13    14    ar
27    13    19    1
28    14    15    ar
29    14    16    1
30    15    33    1
31    16    17    1
32    16    34    1
33    16    35    1
34    17    18    2
35    17    36    1
36    18    37    1
37    18    38    1
38    19    21    1
39    20    22    1
@<TRIPOS>SUBSTRUCTURE
1   LIG    1    
 
########## Number      : 348
########## Name        : ZINC00001538
########## Description : AM1BCC_CHARGES =   0.0002 ORIGINAL_CHARGES =  -0.0000

@<TRIPOS>MOLECULE
ZINC00001538
20    21    1     0     0    
SMALL
USER_CHARGES
****
****
@<TRIPOS>ATOM
1     C1       3.2726   -4.1009   -4.9088 C.ar    1  LIG  -0.1122  -0.1500 
2     C2       2.6599   -5.3408   -4.7788 C.ar    1  LIG  -0.1251  -0.1500 
3     C3       2.2775   -5.8031   -3.5168 C.ar    1  LIG  -0.0968  -0.1500 
4     C4       2.5013   -5.0355   -2.3472 C.ar    1  LIG  -0.1263   0.0000 
5     C5       3.1158   -3.7767   -2.5050 C.ar    1  LIG  -0.1209   0.0000 
6     C6       3.4991   -3.3202   -3.7781 C.ar    1  LIG  -0.1129  -0.1500 
7     C7       3.3246   -3.0043   -1.3734 C.ar    1  LIG   0.3367   0.1600 
8     N1       2.9623   -3.3962   -0.1409 N.ar    1  LIG  -0.3035  -0.3100 
9     N2       2.3661   -4.6114    0.0209 N.ar    1  LIG  -0.3402  -0.3100 
10    C8       2.1498   -5.4374   -1.0360 C.ar    1  LIG   0.5567   0.4100 
11    N3       1.5135   -6.6829   -0.8308 N.pl3   1  LIG  -0.5669  -0.5110 
12    N4       1.0417   -7.0101    0.4318 N.3     1  LIG  -0.6493  -0.7090 
13    H1       1.8137   -7.4474   -1.4264 H       1  LIG   0.3520   0.4000 
14    H2       0.4306   -7.8228    0.3604 H       1  LIG   0.3704   0.3600 
15    H3       1.8264   -7.2907    1.0199 H       1  LIG   0.3386   0.3600 
16    H4       3.5704   -3.7397   -5.8888 H       1  LIG   0.1393   0.1500 
17    H5       2.4761   -5.9515   -5.6583 H       1  LIG   0.1383   0.1500 
18    H6       1.7945   -6.7759   -3.4641 H       1  LIG   0.1475   0.1500 
19    H7       3.9753   -2.3492   -3.8982 H       1  LIG   0.1420   0.1500 
20    H8       3.7924   -2.0264   -1.4202 H       1  LIG   0.0328   0.1500 
@<TRIPOS>BOND
1     1     6     ar
2     1     2     ar
3     1     16    1
4     2     3     ar
5     2     17    1
6     3     4     ar
7     3     18    1
8     4     10    ar
9     4     5     ar
10    5     6     ar
11    5     7     ar
12    6     19    1
13    7     8     ar
14    7     20    1
15    8     9     ar
16    9     10    ar
17    10    11    1
18    11    12    1
19    11    13    1
20    12    14    1
21    12    15    1
@<TRIPOS>SUBSTRUCTURE
1   LIG    1    
 
########## Number      : 349
########## Name        : ZINC00001540
########## Description : AM1BCC_CHARGES =   1.0000 ORIGINAL_CHARGES =   1.0000

@<TRIPOS>MOLECULE
ZINC00001540
41    45    1     0     0    
SMALL
USER_CHARGES
****
****
@<TRIPOS>ATOM
1     C1       2.3893   -0.1208  -11.1756 C.3     1  LIG   0.0832   0.5030 
2     C2       1.0236    0.8275   -9.3308 C.3     1  LIG   0.1171   0.5030 
3     C3       0.4488    0.6298   -7.9358 C.3     1  LIG  -0.0884   0.0000 
4     C4       1.2547   -0.3534   -7.0362 C.3     1  LIG  -0.0457   0.1435 
5     C5       0.5731   -1.6486   -7.0490 C.ar    1  LIG  -0.1450  -0.1435 
6     C6       0.8590   -2.7220   -7.8600 C.ar    1  LIG  -0.1230  -0.1435 
7     C7       0.0676   -3.8435   -7.6383 C.ar    1  LIG  -0.0910  -0.1500 
8     C8      -0.9279   -3.8312   -6.6181 C.ar    1  LIG  -0.1188  -0.1500 
9     C9      -1.1131   -2.7196   -5.7723 C.ar    1  LIG   0.1653   0.0825 
10    C10     -0.3207   -1.6240   -5.9790 C.ar    1  LIG   0.0192   0.0825 
11    O1      -0.1878   -0.4464   -5.2175 O.3     1  LIG  -0.2770  -0.3625 
12    C11      1.1676   -0.0755   -5.5700 C.3     1  LIG   0.0459   0.3410 
13    C12      1.6291    1.3399   -5.3609 C.2     1  LIG   0.5721   0.4480 
14    O2       1.0023    2.1807   -4.7281 O.2     1  LIG  -0.4523  -0.5700 
15    C13      3.0461    1.5948   -5.9440 C.3     1  LIG  -0.1910   0.0610 
16    C14      3.3852    0.8871   -7.3055 C.3     1  LIG  -0.0653   0.0000 
17    C15      2.6738   -0.4837   -7.4848 C.3     1  LIG  -0.0711   0.0000 
18    C16      2.6302   -1.1180   -8.9035 C.3     1  LIG   0.1501   0.5030 
19    C17      2.0701   -2.6101   -8.7681 C.3     1  LIG  -0.0439   0.1435 
20    O3      -2.0259   -2.7802   -4.7684 O.3     1  LIG  -0.4652  -0.5325 
21    H1      -1.9976   -1.9328   -4.2894 H       1  LIG   0.4496   0.4500 
22    H2       1.6709    0.3273  -11.8672 H       1  LIG   0.1036   0.0000 
23    H3       3.2189    0.5625  -10.9748 H       1  LIG   0.1028   0.0000 
24    H4       2.7467   -1.0736  -11.5754 H       1  LIG   0.1019   0.0000 
25    H5       1.7337    1.6544   -9.3889 H       1  LIG   0.0986   0.0000 
26    H6       0.2112    1.0835  -10.0225 H       1  LIG   0.0993   0.0000 
27    H7       0.3736    1.6257   -7.4841 H       1  LIG   0.1014   0.0000 
28    H8      -0.5945    0.2992   -8.0413 H       1  LIG   0.0978   0.0000 
29    H9       0.2175   -4.7486   -8.2210 H       1  LIG   0.1537   0.1500 
30    H10     -1.5307   -4.7248   -6.4665 H       1  LIG   0.1763   0.1500 
31    H11      1.8500   -0.7268   -4.9807 H       1  LIG   0.0913   0.0000 
32    H12      3.1865    2.6752   -6.0570 H       1  LIG   0.0976   0.0000 
33    H13      3.7554    1.2441   -5.1845 H       1  LIG   0.0876   0.0000 
34    H14      3.1770    1.5881   -8.1111 H       1  LIG   0.0405   0.0000 
35    H15      4.4710    0.7324   -7.3547 H       1  LIG   0.0714   0.0000 
36    H16      3.2610   -1.1391   -6.8142 H       1  LIG   0.1032   0.0000 
37    H17      3.6420   -1.1642   -9.3399 H       1  LIG   0.1053   0.0000 
38    H18      2.8660   -3.2277   -8.3330 H       1  LIG   0.1025   0.0000 
39    H19      1.8354   -3.0181   -9.7581 H       1  LIG   0.0689   0.0000 
40    N1       1.6685   -0.4018   -9.8749 N.4     1  LIG  -0.6838  -0.9590 
41    H20      0.9056   -1.0482  -10.1483 H       1  LIG   0.4553   0.4500 
@<TRIPOS>BOND
1     1     22    1
2     1     23    1
3     1     24    1
4     1     40    1
5     2     3     1
6     2     25    1
7     2     26    1
8     2     40    1
9     3     4     1
10    3     27    1
11    3     28    1
12    4     12    1
13    4     17    1
14    4     5     1
15    5     10    ar
16    5     6     ar
17    6     19    1
18    6     7     ar
19    7     8     ar
20    7     29    1
21    8     9     ar
22    8     30    1
23    9     10    ar
24    9     20    1
25    10    11    1
26    11    12    1
27    12    13    1
28    12    31    1
29    13    14    2
30    13    15    1
31    15    16    1
32    15    32    1
33    15    33    1
34    16    17    1
35    16    34    1
36    16    35    1
37    17    18    1
38    17    36    1
39    18    19    1
40    18    37    1
41    18    40    1
42    19    38    1
43    19    39    1
44    20    21    1
45    40    41    1
@<TRIPOS>SUBSTRUCTURE
1   LIG    1    
 
########## Number      : 350
########## Name        : ZINC00001541
########## Description : AM1BCC_CHARGES =  -0.0002 ORIGINAL_CHARGES =  -0.0000

@<TRIPOS>MOLECULE
ZINC00001541
14    14    1     0     0    
SMALL
USER_CHARGES
****
****
@<TRIPOS>ATOM
1     C1       3.9719   -8.1596    1.6270 C.ar    1  LIG  -0.1781  -0.1500 
2     C2       5.1894   -7.6147    1.2194 C.ar    1  LIG  -0.1188  -0.1500 
3     C3       5.5873   -7.7339   -0.1110 C.ar    1  LIG   0.0893   0.0825 
4     C4       4.7841   -8.3914   -1.0422 C.ar    1  LIG  -0.1781  -0.1500 
5     C5       3.5667   -8.9363   -0.6347 C.ar    1  LIG  -0.1188  -0.1500 
6     C6       3.1687   -8.8171    0.6958 C.ar    1  LIG   0.0893   0.0825 
7     O1       1.9702   -9.3626    1.0607 O.3     1  LIG  -0.4987  -0.5325 
8     O2       6.7859   -7.1884   -0.4759 O.3     1  LIG  -0.4987  -0.5325 
9     H1       1.8322   -9.2003    2.0095 H       1  LIG   0.4176   0.4500 
10    H2       6.9239   -7.3507   -1.4247 H       1  LIG   0.4176   0.4500 
11    H3       3.6638   -8.0656    2.6641 H       1  LIG   0.1365   0.1500 
12    H4       5.8207   -7.1010    1.9389 H       1  LIG   0.1521   0.1500 
13    H5       5.0923   -8.4853   -2.0793 H       1  LIG   0.1365   0.1500 
14    H6       2.9354   -9.4500   -1.3541 H       1  LIG   0.1521   0.1500 
@<TRIPOS>BOND
1     1     6     ar
2     1     2     ar
3     1     11    1
4     2     3     ar
5     2     12    1
6     3     4     ar
7     3     8     1
8     4     5     ar
9     4     13    1
10    5     6     ar
11    5     14    1
12    6     7     1
13    7     9     1
14    8     10    1
@<TRIPOS>SUBSTRUCTURE
1   LIG    1    
 
########## Number      : 351
########## Name        : ZINC00001545
########## Description : AM1BCC_CHARGES =   0.0004 ORIGINAL_CHARGES =   0.0000

@<TRIPOS>MOLECULE
ZINC00001545
54    57    1     0     0    
SMALL
USER_CHARGES
****
****
@<TRIPOS>ATOM
1     C1       6.5776    4.2295   -5.1566 C.3     1  LIG  -0.2072   0.0610 
2     C2       5.3027    4.9615   -4.8110 C.2     1  LIG   0.5522   0.4480 
3     O1       5.3163    6.1882   -4.6857 O.2     1  LIG  -0.5261  -0.5700 
4     C3       4.0152    4.1300   -4.6007 C.3     1  LIG   0.0547   0.3410 
5     C4       2.7793    4.9212   -5.1113 C.3     1  LIG  -0.0635   0.0000 
6     C5       2.0472    5.4826   -3.8648 C.3     1  LIG  -0.0700   0.0000 
7     C6       2.9963    5.1786   -2.7051 C.3     1  LIG  -0.0673   0.0000 
8     C7       3.6612    3.8632   -3.1183 C.3     1  LIG  -0.0724   0.0000 
9     C8       4.8580    3.6191   -2.1788 C.3     1  LIG  -0.0732   0.0000 
10    C9       4.4381    3.6175   -0.6927 C.3     1  LIG  -0.0705   0.0000 
11    C10      3.6280    4.8876   -0.3019 C.3     1  LIG  -0.0479   0.0000 
12    C11      2.4311    5.1185   -1.2826 C.3     1  LIG  -0.0492   0.0000 
13    C12      1.6680    6.4175   -0.9308 C.3     1  LIG  -0.0716   0.0000 
14    C13      1.1985    6.4375    0.5267 C.3     1  LIG  -0.0548   0.1382 
15    C14      2.3801    6.1789    1.4275 C.2     1  LIG  -0.0333  -0.2764 
16    C15      2.8127    7.1455    2.2543 C.2     1  LIG  -0.2604  -0.1356 
17    C16      4.1341    7.0396    2.9162 C.2     1  LIG   0.5699   0.4946 
18    O2       4.4736    7.8774    3.7484 O.2     1  LIG  -0.5329  -0.5700 
19    C17      5.0625    5.9466    2.4514 C.3     1  LIG  -0.1826   0.0610 
20    C18      4.2633    4.6776    2.2160 C.3     1  LIG  -0.0713   0.0000 
21    C19      3.1053    4.8528    1.1896 C.3     1  LIG  -0.0149   0.1382 
22    C20      2.1565    3.6527    1.4435 C.3     1  LIG  -0.0872   0.0000 
23    C21      2.7166    2.6276   -3.0075 C.3     1  LIG  -0.0835   0.0000 
24    O3       4.1386    2.9212   -5.3418 O.3     1  LIG  -0.5821  -0.6800 
25    H1       4.7583    2.3360   -4.8741 H       1  LIG   0.4022   0.4000 
26    H2       6.4973    3.8006   -6.1583 H       1  LIG   0.0775   0.0000 
27    H3       7.4160    4.9323   -5.1444 H       1  LIG   0.0709   0.0000 
28    H4       6.7766    3.4466   -4.4219 H       1  LIG   0.0557   0.0000 
29    H5       3.0597    5.7400   -5.7835 H       1  LIG   0.0637   0.0000 
30    H6       2.0966    4.2763   -5.6777 H       1  LIG   0.0680   0.0000 
31    H7       1.8542    6.5553   -3.9682 H       1  LIG   0.0525   0.0000 
32    H8       1.0820    4.9802   -3.7361 H       1  LIG   0.0438   0.0000 
33    H9       3.7024    6.0288   -2.6897 H       1  LIG   0.0724   0.0000 
34    H10      5.3530    2.6705   -2.4189 H       1  LIG   0.0364   0.0000 
35    H11      5.6122    4.4056   -2.3012 H       1  LIG   0.0509   0.0000 
36    H12      3.8711    2.7076   -0.4771 H       1  LIG   0.0457   0.0000 
37    H13      5.3569    3.5588   -0.1000 H       1  LIG   0.0436   0.0000 
38    H14      4.3545    5.7148   -0.4230 H       1  LIG   0.0561   0.0000 
39    H15      1.6814    4.3224   -1.1865 H       1  LIG   0.0547   0.0000 
40    H16      2.3126    7.2871   -1.1165 H       1  LIG   0.0518   0.0000 
41    H17      0.7937    6.5276   -1.5832 H       1  LIG   0.0482   0.0000 
42    H18      0.7362    7.4096    0.7369 H       1  LIG   0.0542   0.0000 
43    H19      0.4188    5.6864    0.6925 H       1  LIG   0.0565   0.0000 
44    H20      2.2790    8.0808    2.3832 H       1  LIG   0.1493   0.1500 
45    H21      5.5850    6.2787    1.5491 H       1  LIG   0.0710   0.0000 
46    H22      5.8077    5.7664    3.2338 H       1  LIG   0.0725   0.0000 
47    H23      4.9356    3.8605    1.9390 H       1  LIG   0.0511   0.0000 
48    H24      3.8371    4.3797    3.1861 H       1  LIG   0.0504   0.0000 
49    H25      1.7029    3.7234    2.4404 H       1  LIG   0.0421   0.0000 
50    H26      1.3294    3.5864    0.7332 H       1  LIG   0.0410   0.0000 
51    H27      2.6947    2.6994    1.4071 H       1  LIG   0.0387   0.0000 
52    H28      2.3151    2.4740   -2.0033 H       1  LIG   0.0425   0.0000 
53    H29      1.8571    2.7067   -3.6813 H       1  LIG   0.0519   0.0000 
54    H30      3.2488    1.7057   -3.2695 H       1  LIG   0.0302   0.0000 
@<TRIPOS>BOND
1     1     2     1
2     1     26    1
3     1     27    1
4     1     28    1
5     2     3     2
6     2     4     1
7     4     8     1
8     4     5     1
9     4     24    1
10    5     6     1
11    5     29    1
12    5     30    1
13    6     7     1
14    6     31    1
15    6     32    1
16    7     12    1
17    7     8     1
18    7     33    1
19    8     9     1
20    8     23    1
21    9     10    1
22    9     34    1
23    9     35    1
24    10    11    1
25    10    36    1
26    10    37    1
27    11    21    1
28    11    12    1
29    11    38    1
30    12    13    1
31    12    39    1
32    13    14    1
33    13    40    1
34    13    41    1
35    14    15    1
36    14    42    1
37    14    43    1
38    15    21    1
39    15    16    2
40    16    17    1
41    16    44    1
42    17    18    2
43    17    19    1
44    19    20    1
45    19    45    1
46    19    46    1
47    20    21    1
48    20    47    1
49    20    48    1
50    21    22    1
51    22    49    1
52    22    50    1
53    22    51    1
54    23    52    1
55    23    53    1
56    23    54    1
57    24    25    1
@<TRIPOS>SUBSTRUCTURE
1   LIG    1    
 
########## Number      : 352
########## Name        : ZINC00001546
########## Description : AM1BCC_CHARGES =   0.0002 ORIGINAL_CHARGES =  -0.0000

@<TRIPOS>MOLECULE
ZINC00001546
54    58    1     0     0    
SMALL
USER_CHARGES
****
****
@<TRIPOS>ATOM
1     C1       2.0197   -3.0594   -2.2894 C.3     1  LIG  -0.0890   0.0000 
2     C2       2.0175   -2.1531   -1.0230 C.3     1  LIG  -0.0265   0.0000 
3     C3       1.9530   -0.6606   -1.4652 C.3     1  LIG  -0.0654   0.0000 
4     C4       0.5301   -0.0532   -1.4511 C.3     1  LIG  -0.0705   0.0000 
5     C5      -0.5223   -1.1268   -1.7903 C.3     1  LIG  -0.0558   0.0000 
6     C6      -0.5724   -2.1532   -0.6380 C.3     1  LIG  -0.0473   0.0000 
7     C7       0.8409   -2.4353   -0.0688 C.3     1  LIG  -0.0618   0.0000 
8     C8       1.1987   -3.8041    0.5155 C.3     1  LIG  -0.0686   0.0000 
9     C9       2.7495   -3.7919    0.5975 C.3     1  LIG  -0.1070   0.0000 
10    C10      3.2322   -2.4971   -0.1202 C.3     1  LIG   0.1478   0.2800 
11    C11      4.5720   -2.6697   -0.8281 C.3     1  LIG  -0.1155   0.0000 
12    O1       3.3975   -1.4742    0.8683 O.3     1  LIG  -0.5980  -0.6800 
13    C12     -1.3296   -3.3936   -1.1309 C.3     1  LIG  -0.0692   0.0000 
14    C13     -2.7772   -3.0001   -1.4637 C.3     1  LIG  -0.0453   0.1382 
15    C14     -2.8993   -1.7919   -2.3746 C.2     1  LIG  -0.0672  -0.2764 
16    C15     -3.8224   -1.8051   -3.3624 C.2     1  LIG  -0.1172  -0.1050 
17    C16     -3.9088   -0.6506   -4.1486 C.2     1  LIG  -0.0797  -0.1966 
18    C17     -3.0593    0.4208   -4.1553 C.2     1  LIG  -0.2467  -0.1810 
19    C18     -3.6128    1.2992   -5.1007 C.2     1  LIG   0.3055   0.1388 
20    N1      -4.7342    0.8135   -5.6514 N.2     1  LIG  -0.5185  -0.7068 
21    N2      -4.8874   -0.3871   -5.0522 N.pl3   1  LIG  -0.0058   0.2996 
22    C19     -1.8475    0.4387   -3.3061 C.3     1  LIG   0.0083   0.1810 
23    C20     -1.9594   -0.5655   -2.0743 C.3     1  LIG   0.0011   0.1382 
24    C21     -2.5536    0.2383   -0.8945 C.3     1  LIG  -0.0872   0.0000 
25    H1       4.0959   -1.7588    1.4821 H       1  LIG   0.3975   0.4000 
26    H2      -5.6851   -0.9559   -5.3097 H       1  LIG   0.3204   0.2700 
27    H3       2.8316   -2.7709   -2.9674 H       1  LIG   0.0350   0.0000 
28    H4       2.1770   -4.1144   -2.0421 H       1  LIG   0.0331   0.0000 
29    H5       1.1058   -3.0248   -2.8774 H       1  LIG   0.0429   0.0000 
30    H6       2.5876   -0.0224   -0.8404 H       1  LIG   0.0675   0.0000 
31    H7       2.3649   -0.5601   -2.4778 H       1  LIG   0.0355   0.0000 
32    H8       0.3328    0.3695   -0.4582 H       1  LIG   0.0443   0.0000 
33    H9       0.5089    0.7832   -2.1568 H       1  LIG   0.0413   0.0000 
34    H10     -0.1509   -1.5817   -2.7205 H       1  LIG   0.0553   0.0000 
35    H11     -1.1903   -1.7880    0.2018 H       1  LIG   0.0483   0.0000 
36    H12      0.8681   -1.7612    0.8127 H       1  LIG   0.0636   0.0000 
37    H13      0.7478   -3.9572    1.5014 H       1  LIG   0.0440   0.0000 
38    H14      0.8790   -4.6293   -0.1290 H       1  LIG   0.0421   0.0000 
39    H15      3.0678   -3.8123    1.6459 H       1  LIG   0.0458   0.0000 
40    H16      3.1381   -4.6944    0.1120 H       1  LIG   0.0461   0.0000 
41    H17      5.3725   -2.8481   -0.1008 H       1  LIG   0.0320   0.0000 
42    H18      4.5728   -3.5072   -1.5316 H       1  LIG   0.0470   0.0000 
43    H19      4.8423   -1.7571   -1.3705 H       1  LIG   0.0503   0.0000 
44    H20     -0.8494   -3.8327   -2.0118 H       1  LIG   0.0474   0.0000 
45    H21     -1.3599   -4.1661   -0.3546 H       1  LIG   0.0432   0.0000 
46    H22     -3.2813   -3.8725   -1.8977 H       1  LIG   0.0453   0.0000 
47    H23     -3.3054   -2.7733   -0.5284 H       1  LIG   0.0516   0.0000 
48    H24     -4.4823   -2.6489   -3.5310 H       1  LIG   0.1319   0.1500 
49    H25     -3.2513    2.2662   -5.4206 H       1  LIG   0.0415   0.1500 
50    H26     -1.0049    0.1508   -3.9489 H       1  LIG   0.0519   0.0000 
51    H27     -1.6455    1.4592   -2.9588 H       1  LIG   0.0540   0.0000 
52    H28     -3.5199    0.6780   -1.1702 H       1  LIG   0.0454   0.0000 
53    H29     -2.7371   -0.3767   -0.0091 H       1  LIG   0.0356   0.0000 
54    H30     -1.8985    1.0635   -0.5973 H       1  LIG   0.0399   0.0000 
@<TRIPOS>BOND
1     1     2     1
2     1     27    1
3     1     28    1
4     1     29    1
5     2     7     1
6     2     10    1
7     2     3     1
8     3     4     1
9     3     30    1
10    3     31    1
11    4     5     1
12    4     32    1
13    4     33    1
14    5     23    1
15    5     6     1
16    5     34    1
17    6     7     1
18    6     13    1
19    6     35    1
20    7     8     1
21    7     36    1
22    8     9     1
23    8     37    1
24    8     38    1
25    9     10    1
26    9     39    1
27    9     40    1
28    10    11    1
29    10    12    1
30    11    41    1
31    11    42    1
32    11    43    1
33    12    25    1
34    13    14    1
35    13    44    1
36    13    45    1
37    14    15    1
38    14    46    1
39    14    47    1
40    15    23    1
41    15    16    2
42    16    17    1
43    16    48    1
44    17    21    1
45    17    18    2
46    18    19    1
47    18    22    1
48    19    20    2
49    19    49    1
50    20    21    1
51    21    26    1
52    22    23    1
53    22    50    1
54    22    51    1
55    23    24    1
56    24    52    1
57    24    53    1
58    24    54    1
@<TRIPOS>SUBSTRUCTURE
1   LIG    1    
 
########## Number      : 353
########## Name        : ZINC00001547
########## Description : AM1BCC_CHARGES =   1.9999 ORIGINAL_CHARGES =   2.0000

@<TRIPOS>MOLECULE
ZINC00001547
39    40    1     0     0    
SMALL
USER_CHARGES
****
****
@<TRIPOS>ATOM
1     C1       1.1356   -1.1761    2.0950 C.ar    1  LIG  -0.1109  -0.1500 
2     C2       1.6443   -2.2192    2.8761 C.ar    1  LIG  -0.0768  -0.1500 
3     C3       3.0123   -2.5208    2.8683 C.ar    1  LIG  -0.1695  -0.0220 
4     C4       3.8565   -1.7536    2.0550 C.ar    1  LIG  -0.0749  -0.1500 
5     C5       3.3487   -0.7089    1.2746 C.ar    1  LIG  -0.1126  -0.1500 
6     C6       1.9833   -0.3990    1.2955 C.ar    1  LIG   0.0196   0.0284 
7     C7       1.3943    0.6693    0.4708 C.2     1  LIG  -0.1208  -0.1784 
8     C8       2.0319    1.7989    0.1222 C.2     1  LIG  -0.0867  -0.1784 
9     C9       1.4327    2.8603   -0.7070 C.ar    1  LIG  -0.0185   0.0284 
10    C10      0.0953    3.2460   -0.5434 C.ar    1  LIG  -0.0822  -0.1500 
11    C11     -0.4549    4.2760   -1.3145 C.ar    1  LIG  -0.1114  -0.1500 
12    C12      0.3190    4.9580   -2.2625 C.ar    1  LIG  -0.1196  -0.0220 
13    C13      1.6611    4.5868   -2.4190 C.ar    1  LIG  -0.1807  -0.1500 
14    C14      2.2074    3.5548   -1.6469 C.ar    1  LIG   0.1604   0.0825 
15    O1       3.5226    3.2080   -1.8223 O.3     1  LIG  -0.4737  -0.5325 
16    C15     -0.2642    6.0418   -3.0709 C.cat   1  LIG   0.5028   0.7308 
17    N1      -1.4779    5.8885   -3.5850 N.pl3   1  LIG  -0.7997  -0.7544 
18    N2       0.4345    7.1517   -3.2729 N.pl3   1  LIG  -0.8005  -0.7544 
19    C16      3.5479   -3.6192    3.6896 C.cat   1  LIG   0.5059   0.7308 
20    N3       4.4616   -4.4319    3.1742 N.pl3   1  LIG  -0.8024  -0.7544 
21    N4       3.1057   -3.7792    4.9305 N.pl3   1  LIG  -0.8022  -0.7544 
22    H1       3.9115    3.7719   -2.5122 H       1  LIG   0.4458   0.4500 
23    H2      -1.9014    6.6203   -4.1436 H       1  LIG   0.4803   0.4500 
24    H3      -2.0056    5.0342   -3.4437 H       1  LIG   0.4916   0.4500 
25    H4       0.0557    7.9093   -3.8295 H       1  LIG   0.4803   0.4500 
26    H5       1.3530    7.2784   -2.8626 H       1  LIG   0.4910   0.4500 
27    H6       4.8458   -5.1941    3.7205 H       1  LIG   0.4787   0.4500 
28    H7       4.7878   -4.3204    2.2206 H       1  LIG   0.4907   0.4500 
29    H8       3.4556   -4.5307    5.5135 H       1  LIG   0.4788   0.4500 
30    H9       2.4223   -3.1466    5.3316 H       1  LIG   0.4907   0.4500 
31    H10      0.0661   -0.9770    2.1241 H       1  LIG   0.1652   0.1500 
32    H11      0.9532   -2.8023    3.4805 H       1  LIG   0.1556   0.1500 
33    H12      4.9251   -1.9542    2.0235 H       1  LIG   0.1549   0.1500 
34    H13      4.0406   -0.1511    0.6477 H       1  LIG   0.1656   0.1500 
35    H14      0.3696    0.4952    0.1504 H       1  LIG   0.1429   0.1500 
36    H15      3.0557    1.9810    0.4383 H       1  LIG   0.1611   0.1500 
37    H16     -0.5391    2.7603    0.1950 H       1  LIG   0.1666   0.1500 
38    H17     -1.4949    4.5499   -1.1508 H       1  LIG   0.1580   0.1500 
39    H18      2.2812    5.0955   -3.1535 H       1  LIG   0.1565   0.1500 
@<TRIPOS>BOND
1     1     6     ar
2     1     2     ar
3     1     31    1
4     2     3     ar
5     2     32    1
6     3     4     ar
7     3     19    1
8     4     5     ar
9     4     33    1
10    5     6     ar
11    5     34    1
12    6     7     1
13    7     8     2
14    7     35    1
15    8     9     1
16    8     36    1
17    9     14    ar
18    9     10    ar
19    10    11    ar
20    10    37    1
21    11    12    ar
22    11    38    1
23    12    13    ar
24    12    16    1
25    13    14    ar
26    13    39    1
27    14    15    1
28    15    22    1
29    16    17    2
30    16    18    1
31    17    23    1
32    17    24    1
33    18    25    1
34    18    26    1
35    19    20    2
36    19    21    1
37    20    27    1
38    20    28    1
39    21    29    1
40    21    30    1
@<TRIPOS>SUBSTRUCTURE
1   LIG    1    
 
########## Number      : 354
########## Name        : ZINC00001548
########## Description : AM1BCC_CHARGES =  -1.0000 ORIGINAL_CHARGES =  -1.0000

@<TRIPOS>MOLECULE
ZINC00001548
18    18    1     0     0    
SMALL
USER_CHARGES
****
****
@<TRIPOS>ATOM
1     C1       4.5093   -8.5675    0.9897 C.3     1  LIG  -0.0213   0.1435 
2     C2       4.4243   -8.0681   -0.4245 C.ar    1  LIG  -0.1625  -0.1435 
3     C3       5.0562   -8.7743   -1.4531 C.ar    1  LIG  -0.1147  -0.1500 
4     C4       4.9826   -8.3188   -2.7664 C.ar    1  LIG  -0.2085  -0.1500 
5     C5       4.2767   -7.1526   -3.0662 C.ar    1  LIG  -0.0703  -0.1500 
6     C6       3.6278   -6.4140   -2.0613 C.ar    1  LIG  -0.2128  -0.1790 
7     C7       3.7155   -6.8937   -0.7388 C.ar    1  LIG   0.1787   0.0825 
8     O1       3.1145   -6.2401    0.3091 O.3     1  LIG  -0.5533  -0.5325 
9     C8       2.8738   -5.1548   -2.4333 C.2     1  LIG   0.9165   0.9790 
10    O2       2.3018   -4.5178   -1.4932 O.co2   1  LIG  -0.8577  -0.9000 
11    H1       2.6617   -5.4505   -0.0422 H       1  LIG   0.4817   0.4500 
12    H2       5.0962   -9.4896    1.0565 H       1  LIG   0.0100   0.0000 
13    H3       4.9923   -7.8198    1.6271 H       1  LIG   0.0345   0.0000 
14    H4       3.5079   -8.7827    1.3763 H       1  LIG   0.0350   0.0000 
15    H5       5.6105   -9.6845   -1.2395 H       1  LIG   0.1016   0.1500 
16    H6       5.4755   -8.8717   -3.5611 H       1  LIG   0.1048   0.1500 
17    H7       4.2409   -6.8272   -4.1038 H       1  LIG   0.1507   0.1500 
18    O3       2.8628   -4.8187   -3.6590 O.co2   1  LIG  -0.8124  -0.9000 
@<TRIPOS>BOND
1     1     2     1
2     1     12    1
3     1     13    1
4     1     14    1
5     2     7     ar
6     2     3     ar
7     3     4     ar
8     3     15    1
9     4     5     ar
10    4     16    1
11    5     6     ar
12    5     17    1
13    6     7     ar
14    6     9     1
15    7     8     1
16    8     11    1
17    9     10    2
18    9     18    1
@<TRIPOS>SUBSTRUCTURE
1   LIG    1    
 
########## Number      : 355
########## Name        : ZINC00001549
########## Description : AM1BCC_CHARGES =  -1.0000 ORIGINAL_CHARGES =  -1.0000

@<TRIPOS>MOLECULE
ZINC00001549
29    29    1     0     0    
SMALL
USER_CHARGES
****
****
@<TRIPOS>ATOM
1     C1       4.1905   -9.7318   -0.8979 C.3     1  LIG  -0.0885   0.0000 
2     C2       3.9060   -8.4426   -0.1231 C.3     1  LIG  -0.0668   0.0000 
3     C3       5.1717   -7.9927    0.6111 C.3     1  LIG  -0.0876   0.0000 
4     C4       3.3810   -7.3600   -1.0864 C.3     1  LIG  -0.0185   0.1435 
5     C5       2.8696   -6.1216   -0.3917 C.ar    1  LIG  -0.1268  -0.1435 
6     C6       1.6587   -6.1500    0.3116 C.ar    1  LIG  -0.1322  -0.1500 
7     C7       1.1857   -5.0056    0.9576 C.ar    1  LIG  -0.1364  -0.1500 
8     C8       1.9168   -3.8121    0.9169 C.ar    1  LIG   0.0001  -0.1435 
9     C9       3.1228   -3.7812    0.2061 C.ar    1  LIG  -0.1394  -0.1500 
10    C10      3.5960   -4.9255   -0.4404 C.ar    1  LIG  -0.1314  -0.1500 
11    C11      1.4000   -2.5755    1.5994 C.3     1  LIG  -0.1829   0.0375 
12    C12      0.5253   -1.7842    0.6332 C.2     1  LIG   0.9225   0.9060 
13    O1       1.1335   -0.9165   -0.0559 O.co2   1  LIG  -0.8354  -0.9000 
14    H1       3.2847  -10.0947   -1.3950 H       1  LIG   0.0280   0.0000 
15    H2       4.9584   -9.5749   -1.6631 H       1  LIG   0.0264   0.0000 
16    H3       4.5395  -10.5218   -0.2244 H       1  LIG   0.0223   0.0000 
17    H4       3.1387   -8.6678    0.6285 H       1  LIG   0.0510   0.0000 
18    H5       4.9745   -7.1266    1.2505 H       1  LIG   0.0542   0.0000 
19    H6       5.5511   -8.7933    1.2551 H       1  LIG   0.0182   0.0000 
20    H7       5.9652   -7.7226   -0.0939 H       1  LIG   0.0231   0.0000 
21    H8       4.1653   -7.0881   -1.8052 H       1  LIG   0.0345   0.0000 
22    H9       2.5582   -7.7670   -1.6895 H       1  LIG   0.0369   0.0000 
23    H10      1.0724   -7.0644    0.3581 H       1  LIG   0.1084   0.1500 
24    H11      0.2395   -5.0497    1.4915 H       1  LIG   0.1384   0.1500 
25    H12      3.7011   -2.8620    0.1495 H       1  LIG   0.1376   0.1500 
26    H13      4.5374   -4.8747   -0.9817 H       1  LIG   0.1084   0.1500 
27    H14      0.8266   -2.8451    2.4948 H       1  LIG   0.0353   0.0000 
28    H15      2.2345   -1.9554    1.9490 H       1  LIG   0.0357   0.0000 
29    O2      -0.7038   -2.0781    0.6559 O.co2   1  LIG  -0.8351  -0.9000 
@<TRIPOS>BOND
1     1     2     1
2     1     14    1
3     1     15    1
4     1     16    1
5     2     3     1
6     2     4     1
7     2     17    1
8     3     18    1
9     3     19    1
10    3     20    1
11    4     5     1
12    4     21    1
13    4     22    1
14    5     10    ar
15    5     6     ar
16    6     7     ar
17    6     23    1
18    7     8     ar
19    7     24    1
20    8     9     ar
21    8     11    1
22    9     10    ar
23    9     25    1
24    10    26    1
25    11    12    1
26    11    27    1
27    11    28    1
28    12    13    2
29    12    29    1
@<TRIPOS>SUBSTRUCTURE
1   LIG    1    
 
########## Number      : 356
########## Name        : ZINC00001551
########## Description : AM1BCC_CHARGES =  -0.0001 ORIGINAL_CHARGES =   0.0000

@<TRIPOS>MOLECULE
ZINC00001551
36    38    1     0     0    
SMALL
USER_CHARGES
****
****
@<TRIPOS>ATOM
1     C1       8.0116    3.6389    1.5704 C.ar    1  LIG  -0.1078  -0.1500 
2     C2       8.7671    4.6700    1.0018 C.ar    1  LIG  -0.1151  -0.1500 
3     C3       8.1724    5.4351    0.0232 C.ar    1  LIG   0.0657   0.0825 
4     C4       6.8832    5.2000   -0.3905 C.ar    1  LIG   0.0510   0.0825 
5     C5       6.1140    4.1891    0.1532 C.ar    1  LIG  -0.0988  -0.1500 
6     C6       6.6784    3.3944    1.1647 C.ar    1  LIG  -0.0751   0.0284 
7     C7       5.9538    2.2738    1.7883 C.2     1  LIG  -0.0393  -0.1784 
8     C8       4.6216    2.2189    1.9342 C.2     1  LIG  -0.2248  -0.1356 
9     C9       4.0130    1.0462    2.6204 C.2     1  LIG   0.6588   0.6156 
10    O1       4.6323    0.4861    3.5260 O.2     1  LIG  -0.6106  -0.5700 
11    N1       2.7404    0.6680    2.1956 N.am    1  LIG  -0.4602  -0.6602 
12    C10      2.0307    1.1755    1.0132 C.3     1  LIG   0.0916   0.3001 
13    C11      0.6604    1.7199    1.4071 C.3     1  LIG  -0.1031   0.0000 
14    C12     -0.1482    0.6699    2.1699 C.3     1  LIG  -0.0779   0.0000 
15    C13      0.6429    0.1189    3.3565 C.3     1  LIG  -0.1019   0.0000 
16    C14      2.0212   -0.3782    2.9250 C.3     1  LIG   0.0825   0.3001 
17    O2       6.4898    6.0592   -1.3703 O.3     1  LIG  -0.3346  -0.3625 
18    C15      7.6767    6.8644   -1.5221 C.3     1  LIG   0.3211   0.5600 
19    O3       8.7495    6.4722   -0.6415 O.3     1  LIG  -0.3317  -0.3625 
20    H1       8.4706    3.0249    2.3434 H       1  LIG   0.1459   0.1500 
21    H2       9.7862    4.8546    1.3224 H       1  LIG   0.1587   0.1500 
22    H3       5.1060    4.0241   -0.2127 H       1  LIG   0.1548   0.1500 
23    H4       6.5766    1.4604    2.1548 H       1  LIG   0.1509   0.1500 
24    H5       3.9726    3.0271    1.6219 H       1  LIG   0.1399   0.1500 
25    H6       2.5997    1.9378    0.4791 H       1  LIG   0.0527   0.0000 
26    H7       1.9165    0.3313    0.3219 H       1  LIG   0.0462   0.0000 
27    H8       0.7877    2.6071    2.0397 H       1  LIG   0.0475   0.0000 
28    H9       0.1115    2.0331    0.5123 H       1  LIG   0.0491   0.0000 
29    H10     -1.0892    1.1077    2.5210 H       1  LIG   0.0443   0.0000 
30    H11     -0.4086   -0.1526    1.4924 H       1  LIG   0.0413   0.0000 
31    H12      0.7615    0.9117    4.1056 H       1  LIG   0.0504   0.0000 
32    H13      0.0843   -0.6952    3.8312 H       1  LIG   0.0508   0.0000 
33    H14      1.9278   -1.2424    2.2568 H       1  LIG   0.0425   0.0000 
34    H15      2.5856   -0.7029    3.8049 H       1  LIG   0.0869   0.0000 
35    H16      8.0256    6.7833   -2.5580 H       1  LIG   0.0739   0.0000 
36    H17      7.4198    7.9103   -1.3182 H       1  LIG   0.0743   0.0000 
@<TRIPOS>BOND
1     1     6     ar
2     1     2     ar
3     1     20    1
4     2     3     ar
5     2     21    1
6     3     19    1
7     3     4     ar
8     4     5     ar
9     4     17    1
10    5     6     ar
11    5     22    1
12    6     7     1
13    7     8     2
14    7     23    1
15    8     9     1
16    8     24    1
17    9     10    2
18    9     11    am
19    11    16    1
20    11    12    1
21    12    13    1
22    12    25    1
23    12    26    1
24    13    14    1
25    13    27    1
26    13    28    1
27    14    15    1
28    14    29    1
29    14    30    1
30    15    16    1
31    15    31    1
32    15    32    1
33    16    33    1
34    16    34    1
35    17    18    1
36    18    19    1
37    18    35    1
38    18    36    1
@<TRIPOS>SUBSTRUCTURE
1   LIG    1    
 
########## Number      : 357
########## Name        : ZINC00001554
########## Description : AM1BCC_CHARGES =  -0.9999 ORIGINAL_CHARGES =  -1.0000

@<TRIPOS>MOLECULE
ZINC00001554
15    15    1     0     0    
SMALL
USER_CHARGES
****
****
@<TRIPOS>ATOM
1     C1       6.4040   -8.8406   -0.4216 C.ar    1  LIG  -0.2109  -0.1500 
2     C2       6.6431   -8.4660   -1.7399 C.ar    1  LIG  -0.1178  -0.1500 
3     C3       5.5924   -8.4442   -2.6524 C.ar    1  LIG  -0.2118  -0.1500 
4     C4       4.3031   -8.7976   -2.2439 C.ar    1  LIG   0.1758   0.0825 
5     C5       4.0342   -9.1800   -0.9177 C.ar    1  LIG  -0.2131  -0.1790 
6     C6       5.1137   -9.1936   -0.0154 C.ar    1  LIG  -0.0691  -0.1500 
7     C7       2.6528   -9.5687   -0.4393 C.2     1  LIG   0.9162   0.9790 
8     O1       1.7113   -9.5401   -1.2935 O.co2   1  LIG  -0.8579  -0.9000 
9     O2       3.3350   -8.7457   -3.2127 O.3     1  LIG  -0.5549  -0.5325 
10    H1       2.4880   -9.0119   -2.8074 H       1  LIG   0.4813   0.4500 
11    H2       7.2204   -8.8594    0.2948 H       1  LIG   0.1045   0.1500 
12    H3       7.6451   -8.1918   -2.0559 H       1  LIG   0.0999   0.1500 
13    H4       5.7797   -8.1516   -3.6821 H       1  LIG   0.1206   0.1500 
14    H5       4.9633   -9.4813    1.0231 H       1  LIG   0.1502   0.1500 
15    O3       2.5263   -9.8971    0.7818 O.co2   1  LIG  -0.8129  -0.9000 
@<TRIPOS>BOND
1     1     6     ar
2     1     2     ar
3     1     11    1
4     2     3     ar
5     2     12    1
6     3     4     ar
7     3     13    1
8     4     5     ar
9     4     9     1
10    5     6     ar
11    5     7     1
12    6     14    1
13    7     8     2
14    7     15    1
15    9     10    1
@<TRIPOS>SUBSTRUCTURE
1   LIG    1    
 
########## Number      : 358
########## Name        : ZINC00001555
########## Description : AM1BCC_CHARGES =   0.0000 ORIGINAL_CHARGES =   0.0000

@<TRIPOS>MOLECULE
ZINC00001555
15    16    1     0     0    
SMALL
USER_CHARGES
****
****
@<TRIPOS>ATOM
1     C1       5.4869   -9.2572   -0.6576 C.2     1  LIG  -0.2787  -0.1500 
2     C2       4.4382  -10.1908   -0.4020 C.2     1  LIG   0.2981   0.1388 
3     N1       3.4441   -9.6860    0.3528 N.2     1  LIG  -0.4847  -0.7068 
4     N2       3.8798   -8.4482    0.5600 N.pl3   1  LIG   0.0468   0.3140 
5     C3       5.0661   -8.1376   -0.0040 C.2     1  LIG   0.0270  -0.0676 
6     N3       5.3893   -6.8719    0.2779 N.pl3   1  LIG  -0.6385  -0.8531 
7     C4       4.3426   -6.2561    1.1037 C.3     1  LIG   0.1313   0.3691 
8     C5       3.2784   -7.3632    1.3041 C.3     1  LIG   0.0350   0.2556 
9     H1       6.2194   -6.3679   -0.0110 H       1  LIG   0.3834   0.4000 
10    H2       6.3917   -9.4018   -1.2284 H       1  LIG   0.1700   0.1500 
11    H3       4.3651  -11.2156   -0.7381 H       1  LIG   0.0413   0.1500 
12    H4       4.7543   -5.9295    2.0643 H       1  LIG   0.0765   0.0000 
13    H5       3.9133   -5.3873    0.5940 H       1  LIG   0.0514   0.0000 
14    H6       2.3157   -7.1130    0.8521 H       1  LIG   0.0697   0.0000 
15    H7       3.1718   -7.6649    2.3488 H       1  LIG   0.0714   0.0000 
@<TRIPOS>BOND
1     1     5     2
2     1     2     1
3     1     10    1
4     2     3     2
5     2     11    1
6     3     4     1
7     4     8     1
8     4     5     1
9     5     6     1
10    6     7     1
11    6     9     1
12    7     8     1
13    7     12    1
14    7     13    1
15    8     14    1
16    8     15    1
@<TRIPOS>SUBSTRUCTURE
1   LIG    1    
 
########## Number      : 359
########## Name        : ZINC00001568
########## Description : AM1BCC_CHARGES =  -0.0003 ORIGINAL_CHARGES =   0.0000

@<TRIPOS>MOLECULE
ZINC00001568
44    47    1     0     0    
SMALL
USER_CHARGES
****
****
@<TRIPOS>ATOM
1     C1       4.0835    1.9208   -6.5650 C.3     1  LIG   0.1141   0.2800 
2     O1       3.8085    2.2090   -5.1992 O.3     1  LIG  -0.3283  -0.3625 
3     C2       3.7845    1.1454   -4.3367 C.ar    1  LIG   0.1213   0.0825 
4     C3       4.0014   -0.1908   -4.6799 C.ar    1  LIG  -0.2072  -0.1500 
5     C4       3.9497   -1.1869   -3.6991 C.ar    1  LIG  -0.0890  -0.1500 
6     C5       3.6844   -0.8564   -2.3654 C.ar    1  LIG  -0.0514   0.0540 
7     C6       3.4609    0.4812   -2.0231 C.ar    1  LIG  -0.0843  -0.1500 
8     C7       3.5135    1.4734   -3.0045 C.ar    1  LIG  -0.1579  -0.1500 
9     C8       3.6310   -1.8997   -1.3529 C.2     1  LIG  -0.0705  -0.0540 
10    C9       2.7457   -3.0248   -1.2945 C.ar    1  LIG  -0.0851   0.0000 
11    C10      1.7001   -3.5040   -2.1132 C.ar    1  LIG  -0.0801  -0.1500 
12    C11      1.0177   -4.6697   -1.7465 C.ar    1  LIG  -0.1598  -0.1500 
13    C12      1.3573   -5.3559   -0.5835 C.ar    1  LIG  -0.1115  -0.1500 
14    C13      2.3838   -4.8986    0.2469 C.ar    1  LIG  -0.1481  -0.1500 
15    C14      3.0557   -3.7314   -0.1344 C.ar    1  LIG  -0.0412  -0.1516 
16    N1       4.0833   -3.0619    0.4840 N.pl3   1  LIG  -0.1868   0.0332 
17    C15      4.4622   -1.9498   -0.2377 C.2     1  LIG   0.0148  -0.2046 
18    C16      5.5687   -1.0970    0.2064 C.ar    1  LIG  -0.0849   0.0530 
19    C17      6.6009   -0.7464   -0.6712 C.ar    1  LIG  -0.0678  -0.1500 
20    C18      7.6506    0.0690   -0.2405 C.ar    1  LIG  -0.1580  -0.1500 
21    C19      7.6906    0.5460    1.0725 C.ar    1  LIG   0.1330   0.0825 
22    C20      6.6669    0.1961    1.9541 C.ar    1  LIG  -0.2085  -0.1500 
23    C21      5.6151   -0.6207    1.5235 C.ar    1  LIG  -0.0852  -0.1500 
24    O2       8.7701    1.3347    1.3683 O.3     1  LIG  -0.3249  -0.3625 
25    C22      8.8477    1.8443    2.6943 C.3     1  LIG   0.1128   0.2800 
26    H1       4.5179   -3.3598    1.3462 H       1  LIG   0.2989   0.2700 
27    H2       4.0687    2.8666   -7.1151 H       1  LIG   0.0649   0.0000 
28    H3       5.0802    1.4828   -6.6832 H       1  LIG   0.0327   0.0000 
29    H4       3.3119    1.2737   -6.9950 H       1  LIG   0.0321   0.0000 
30    H5       4.2143   -0.4940   -5.7002 H       1  LIG   0.1357   0.1500 
31    H6       4.1273   -2.2199   -3.9900 H       1  LIG   0.1379   0.1500 
32    H7       3.2418    0.7661   -0.9968 H       1  LIG   0.1408   0.1500 
33    H8       3.3397    2.5091   -2.7221 H       1  LIG   0.1484   0.1500 
34    H9       1.4197   -2.9788   -3.0218 H       1  LIG   0.1386   0.1500 
35    H10      0.2138   -5.0408   -2.3767 H       1  LIG   0.1294   0.1500 
36    H11      0.8153   -6.2593   -0.3153 H       1  LIG   0.1286   0.1500 
37    H12      2.6455   -5.4318    1.1548 H       1  LIG   0.1315   0.1500 
38    H13      6.6083   -1.1079   -1.6966 H       1  LIG   0.1502   0.1500 
39    H14      8.4418    0.3289   -0.9400 H       1  LIG   0.1534   0.1500 
40    H15      6.6525    0.5416    2.9831 H       1  LIG   0.1390   0.1500 
41    H16      4.8265   -0.8693    2.2306 H       1  LIG   0.1356   0.1500 
42    H17      9.7567    2.4493    2.7666 H       1  LIG   0.0683   0.0000 
43    H18      7.9961    2.4954    2.9175 H       1  LIG   0.0351   0.0000 
44    H19      8.9292    1.0328    3.4249 H       1  LIG   0.0331   0.0000 
@<TRIPOS>BOND
1     1     2     1
2     1     27    1
3     1     28    1
4     1     29    1
5     2     3     1
6     3     8     ar
7     3     4     ar
8     4     5     ar
9     4     30    1
10    5     6     ar
11    5     31    1
12    6     7     ar
13    6     9     1
14    7     8     ar
15    7     32    1
16    8     33    1
17    9     17    2
18    9     10    1
19    10    15    ar
20    10    11    ar
21    11    12    ar
22    11    34    1
23    12    13    ar
24    12    35    1
25    13    14    ar
26    13    36    1
27    14    15    ar
28    14    37    1
29    15    16    1
30    16    17    1
31    16    26    1
32    17    18    1
33    18    23    ar
34    18    19    ar
35    19    20    ar
36    19    38    1
37    20    21    ar
38    20    39    1
39    21    22    ar
40    21    24    1
41    22    23    ar
42    22    40    1
43    23    41    1
44    24    25    1
45    25    42    1
46    25    43    1
47    25    44    1
@<TRIPOS>SUBSTRUCTURE
1   LIG    1    
 
########## Number      : 360
########## Name        : ZINC00001569
########## Description : AM1BCC_CHARGES =   0.0001 ORIGINAL_CHARGES =   0.0000

@<TRIPOS>MOLECULE
ZINC00001569
35    37    1     0     0    
SMALL
USER_CHARGES
****
****
@<TRIPOS>ATOM
1     C1      -1.9764   -7.4932   -2.9277 C.3     1  LIG  -0.0912   0.0000 
2     C2      -1.8004   -6.2480   -2.0583 C.3     1  LIG  -0.0147   0.1800 
3     C3      -2.5371   -6.4108   -0.7274 C.3     1  LIG  -0.0920   0.0000 
4     C4      -0.3514   -5.9478   -1.8299 C.2     1  LIG   0.1087  -0.0400 
5     C5       0.4696   -4.8575   -2.0883 C.2     1  LIG  -0.2216  -0.0860 
6     C6       1.7426   -5.1836   -1.5205 C.ar    1  LIG  -0.0770   0.0000 
7     C7       2.9899   -4.5393   -1.4079 C.ar    1  LIG  -0.0769  -0.1500 
8     C8       4.0442   -5.2103   -0.7732 C.ar    1  LIG  -0.1434  -0.1500 
9     C9       3.8716   -6.4972   -0.2595 C.ar    1  LIG  -0.1127  -0.1500 
10    C10      2.6436   -7.1569   -0.3602 C.ar    1  LIG  -0.1192  -0.1500 
11    C11      1.6158   -6.4621   -0.9951 C.ar    1  LIG   0.0513   0.1400 
12    O1       0.3534   -6.9241   -1.1845 O.3     1  LIG  -0.1922  -0.2800 
13    C12      0.1106   -3.6089   -2.7405 C.2     1  LIG   0.6146   0.5698 
14    O2       0.4713   -2.5231   -2.2963 O.2     1  LIG  -0.5125  -0.5700 
15    C13     -0.6764   -3.6338   -3.9948 C.ar    1  LIG  -0.1306   0.0862 
16    C14     -0.4779   -4.6247   -4.9560 C.ar    1  LIG  -0.2112  -0.1500 
17    C15     -1.2425   -4.5643   -6.1101 C.ar    1  LIG   0.3837   0.1600 
18    N1      -2.1580   -3.6032   -6.3637 N.ar    1  LIG  -0.6482  -0.6200 
19    C16     -2.3104   -2.6500   -5.4180 C.ar    1  LIG   0.3846   0.1600 
20    C17     -1.5989   -2.6146   -4.2300 C.ar    1  LIG  -0.2013  -0.1500 
21    H1      -1.4560   -7.3840   -3.8852 H       1  LIG   0.0398   0.0000 
22    H2      -1.5796   -8.3888   -2.4364 H       1  LIG   0.0520   0.0000 
23    H3      -3.0363   -7.6695   -3.1402 H       1  LIG   0.0458   0.0000 
24    H4      -2.2664   -5.4063   -2.5813 H       1  LIG   0.0723   0.0000 
25    H5      -2.4281   -5.5137   -0.1076 H       1  LIG   0.0455   0.0000 
26    H6      -3.6070   -6.5753   -0.8946 H       1  LIG   0.0445   0.0000 
27    H7      -2.1524   -7.2607   -0.1522 H       1  LIG   0.0513   0.0000 
28    H8       3.1417   -3.5398   -1.8048 H       1  LIG   0.1547   0.1500 
29    H9       5.0105   -4.7205   -0.6812 H       1  LIG   0.1370   0.1500 
30    H10      4.7063   -6.9952    0.2280 H       1  LIG   0.1371   0.1500 
31    H11      2.4982   -8.1545    0.0366 H       1  LIG   0.1513   0.1500 
32    H12      0.2503   -5.4184   -4.8310 H       1  LIG   0.1548   0.1500 
33    H13     -1.1312   -5.3115   -6.8895 H       1  LIG   0.0268   0.1500 
34    H14     -3.0460   -1.8858   -5.6481 H       1  LIG   0.0281   0.1500 
35    H15     -1.7710   -1.8192   -3.5128 H       1  LIG   0.1609   0.1500 
@<TRIPOS>BOND
1     1     2     1
2     1     21    1
3     1     22    1
4     1     23    1
5     2     3     1
6     2     4     1
7     2     24    1
8     3     25    1
9     3     26    1
10    3     27    1
11    4     12    1
12    4     5     2
13    5     6     1
14    5     13    1
15    6     11    ar
16    6     7     ar
17    7     8     ar
18    7     28    1
19    8     9     ar
20    8     29    1
21    9     10    ar
22    9     30    1
23    10    11    ar
24    10    31    1
25    11    12    1
26    13    14    2
27    13    15    1
28    15    20    ar
29    15    16    ar
30    16    17    ar
31    16    32    1
32    17    18    ar
33    17    33    1
34    18    19    ar
35    19    20    ar
36    19    34    1
37    20    35    1
@<TRIPOS>SUBSTRUCTURE
1   LIG    1    
 
########## Number      : 361
########## Name        : ZINC00001572
########## Description : AM1BCC_CHARGES =   0.0000 ORIGINAL_CHARGES =   0.0000

@<TRIPOS>MOLECULE
ZINC00001572
29    30    1     0     0    
SMALL
USER_CHARGES
****
****
@<TRIPOS>ATOM
1     C1       0.1971    6.1177    4.3231 C.2     1  LIG   0.6711   0.4400 
2     N1      -0.1280    6.6498    3.0913 N.pl3   1  LIG  -0.7243  -0.5340 
3     C2      -0.9175    5.8825    2.3257 C.2     1  LIG   0.0397  -0.0676 
4     C3      -1.3657    4.6550    2.7424 C.2     1  LIG   0.2041   0.1412 
5     C4      -1.0002    4.1299    4.0514 C.2     1  LIG   0.6275   0.8670 
6     O1      -1.3940    3.0360    4.4379 O.2     1  LIG  -0.4927  -0.5700 
7     N2      -0.1761    4.9685    4.8119 N.2     1  LIG  -0.6604  -0.6610 
8     N3      -2.1460    4.0718    1.7842 N.2     1  LIG  -0.5649  -0.5653 
9     C5      -2.1655    4.9491    0.7986 C.2     1  LIG   0.4024   0.0365 
10    N4      -1.4205    6.0784    1.0788 N.pl3   1  LIG  -0.2701   0.0476 
11    C6      -1.3005    7.2068    0.1669 C.3     1  LIG   0.1459   0.5966 
12    C7      -1.1239    8.5469    0.8606 C.2     1  LIG   0.5480   0.4490 
13    O2      -0.2422    9.3617    0.6119 O.2     1  LIG  -0.5035  -0.5700 
14    O3      -0.2763    6.9428   -0.7880 O.3     1  LIG  -0.4200  -0.5600 
15    C8       1.0703    6.8184   -0.3464 C.3     1  LIG  -0.0288   0.3410 
16    C9       1.9466    7.7164   -1.2254 C.3     1  LIG   0.1385   0.2800 
17    O4       1.7776    7.4008   -2.6048 O.3     1  LIG  -0.5865  -0.6800 
18    C10      1.4665    5.3592   -0.4613 C.2     1  LIG   0.5618   0.4490 
19    O5       2.5405    4.9625   -0.9040 O.2     1  LIG  -0.5034  -0.5700 
20    H1       0.2357    7.5566    2.8179 H       1  LIG   0.4647   0.4000 
21    H2       0.8235    7.4400   -2.7918 H       1  LIG   0.4110   0.4000 
22    H3       0.8466    6.7842    4.9131 H       1  LIG   0.0623   0.0600 
23    H4      -2.6931    4.8272   -0.1383 H       1  LIG   0.0749   0.1500 
24    H5      -2.2671    7.3058   -0.3535 H       1  LIG   0.1179   0.0000 
25    H6      -1.8979    8.7866    1.6115 H       1  LIG   0.0394   0.0600 
26    H7       1.2023    7.1375    0.6940 H       1  LIG   0.0837   0.0000 
27    H8       1.6725    8.7682   -1.1019 H       1  LIG   0.0438   0.0000 
28    H9       3.0069    7.6061   -0.9777 H       1  LIG   0.0934   0.0000 
29    H10      0.7477    4.6336   -0.0478 H       1  LIG   0.0245   0.0600 
@<TRIPOS>BOND
1     1     7     2
2     1     2     1
3     1     22    1
4     2     3     1
5     2     20    1
6     3     10    1
7     3     4     2
8     4     5     1
9     4     8     1
10    5     6     2
11    5     7     1
12    8     9     2
13    9     10    1
14    9     23    1
15    10    11    1
16    11    12    1
17    11    14    1
18    11    24    1
19    12    13    2
20    12    25    1
21    14    15    1
22    15    16    1
23    15    18    1
24    15    26    1
25    16    17    1
26    16    27    1
27    16    28    1
28    17    21    1
29    18    19    2
30    18    29    1
@<TRIPOS>SUBSTRUCTURE
1   LIG    1    
 
########## Number      : 362
########## Name        : ZINC00001576
########## Description : AM1BCC_CHARGES =   1.0001 ORIGINAL_CHARGES =   1.0000

@<TRIPOS>MOLECULE
ZINC00001576
50    52    1     0     0    
SMALL
USER_CHARGES
****
****
@<TRIPOS>ATOM
1     C1      -6.1053    2.4436   -2.2840 C.3     1  LIG   0.0818   0.5030 
2     C2      -5.6962    0.8059   -0.4669 C.3     1  LIG   0.0806   0.5030 
3     C3      -3.8391    2.3322   -1.2490 C.3     1  LIG   0.1093   0.5030 
4     C4      -3.1002    2.4467    0.0805 C.3     1  LIG  -0.1519   0.0000 
5     C5      -1.6189    2.7493   -0.1498 C.3     1  LIG   0.0671   0.2556 
6     N1      -0.8736    2.8350    1.1019 N.pl3   1  LIG  -0.1041   0.0476 
7     C6      -0.7703    3.9902    1.8506 C.ar    1  LIG  -0.0408  -0.1516 
8     C7      -1.3187    5.2704    1.6570 C.ar    1  LIG  -0.1646  -0.1500 
9     C8      -1.0378    6.2618    2.6001 C.ar    1  LIG  -0.0990  -0.1500 
10    C9      -0.2365    5.9887    3.7019 C.ar    1  LIG  -0.1490  -0.1500 
11    C10      0.3044    4.7128    3.8863 C.ar    1  LIG  -0.0709  -0.1500 
12    C11      0.0363    3.6912    2.9465 C.ar    1  LIG  -0.0899   0.0000 
13    C12      0.4243    2.3121    2.8422 C.2     1  LIG  -0.0814  -0.1810 
14    C13     -0.1779    1.7951    1.6997 C.2     1  LIG  -0.0586  -0.3316 
15    C14     -0.1701    0.4217    1.0871 C.3     1  LIG  -0.0124   0.1800 
16    C15      0.2916   -0.7329    1.9704 C.3     1  LIG  -0.0742   0.0000 
17    C16     -0.5256   -0.9092    3.2541 C.3     1  LIG  -0.0745   0.0000 
18    C17      0.2827   -0.6563    4.5264 C.3     1  LIG  -0.0780   0.0000 
19    C18      0.5244    0.8140    4.8740 C.3     1  LIG  -0.0748   0.0000 
20    C19      1.3078    1.6094    3.8292 C.3     1  LIG  -0.0157   0.1810 
21    H1      -5.8762    3.4653   -2.5983 H       1  LIG   0.1064   0.0000 
22    H2      -5.8103    1.7204   -3.0491 H       1  LIG   0.1068   0.0000 
23    H3      -7.1705    2.3596   -2.0526 H       1  LIG   0.1070   0.0000 
24    H4      -5.2388    0.6994    0.5185 H       1  LIG   0.1097   0.0000 
25    H5      -6.7842    0.7664   -0.3649 H       1  LIG   0.1053   0.0000 
26    H6      -5.3412    0.0339   -1.1546 H       1  LIG   0.1057   0.0000 
27    H7      -3.4876    1.4847   -1.8475 H       1  LIG   0.1042   0.0000 
28    H8      -3.7117    3.2555   -1.8253 H       1  LIG   0.1026   0.0000 
29    H9      -3.5511    3.2385    0.6913 H       1  LIG   0.0783   0.0000 
30    H10     -3.1945    1.5183    0.6539 H       1  LIG   0.0770   0.0000 
31    H11     -1.1512    1.9840   -0.7779 H       1  LIG   0.0664   0.0000 
32    H12     -1.4897    3.7000   -0.6798 H       1  LIG   0.0652   0.0000 
33    H13     -1.9480    5.4958    0.8023 H       1  LIG   0.1175   0.1500 
34    H14     -1.4522    7.2581    2.4694 H       1  LIG   0.1369   0.1500 
35    H15     -0.0281    6.7708    4.4270 H       1  LIG   0.1429   0.1500 
36    H16      0.9264    4.5175    4.7554 H       1  LIG   0.1457   0.1500 
37    H17     -1.1811    0.1774    0.7382 H       1  LIG   0.0181   0.0000 
38    H18      0.4712    0.4486    0.1968 H       1  LIG   0.0566   0.0000 
39    H19      0.1798   -1.6497    1.3752 H       1  LIG   0.0425   0.0000 
40    H20      1.3646   -0.6629    2.1737 H       1  LIG   0.0625   0.0000 
41    H21     -1.4372   -0.3007    3.2493 H       1  LIG   0.0365   0.0000 
42    H22     -0.8616   -1.9540    3.2898 H       1  LIG   0.0384   0.0000 
43    H23     -0.2612   -1.1062    5.3671 H       1  LIG   0.0451   0.0000 
44    H24      1.2424   -1.1850    4.4709 H       1  LIG   0.0477   0.0000 
45    H25     -0.4331    1.3010    5.0981 H       1  LIG   0.0456   0.0000 
46    H26      1.0997    0.8276    5.8091 H       1  LIG   0.0479   0.0000 
47    H27      2.0546    0.9918    3.3215 H       1  LIG   0.0557   0.0000 
48    H28      1.8973    2.3679    4.3606 H       1  LIG   0.0541   0.0000 
49    N2      -5.3274    2.1547   -1.0258 N.4     1  LIG  -0.6804  -0.9590 
50    H29     -5.6232    2.8592   -0.3364 H       1  LIG   0.4532   0.4500 
@<TRIPOS>BOND
1     1     21    1
2     1     22    1
3     1     23    1
4     1     49    1
5     2     24    1
6     2     25    1
7     2     26    1
8     2     49    1
9     3     4     1
10    3     27    1
11    3     28    1
12    3     49    1
13    4     5     1
14    4     29    1
15    4     30    1
16    5     6     1
17    5     31    1
18    5     32    1
19    6     14    1
20    6     7     1
21    7     12    ar
22    7     8     ar
23    8     9     ar
24    8     33    1
25    9     10    ar
26    9     34    1
27    10    11    ar
28    10    35    1
29    11    12    ar
30    11    36    1
31    12    13    1
32    13    20    1
33    13    14    2
34    14    15    1
35    15    16    1
36    15    37    1
37    15    38    1
38    16    17    1
39    16    39    1
40    16    40    1
41    17    18    1
42    17    41    1
43    17    42    1
44    18    19    1
45    18    43    1
46    18    44    1
47    19    20    1
48    19    45    1
49    19    46    1
50    20    47    1
51    20    48    1
52    49    50    1
@<TRIPOS>SUBSTRUCTURE
1   LIG    1    
 
########## Number      : 363
########## Name        : ZINC00001579
########## Description : AM1BCC_CHARGES =  -0.0000 ORIGINAL_CHARGES =   0.0000

@<TRIPOS>MOLECULE
ZINC00001579
26    26    1     0     0    
SMALL
USER_CHARGES
****
****
@<TRIPOS>ATOM
1     C1       4.9697   -8.9570   -1.5883 C.3     1  LIG  -0.0925   0.0000 
2     C2       3.5796   -8.3291   -1.4810 C.3     1  LIG   0.1409   0.2700 
3     C3       2.6175   -9.3020   -0.7955 C.3     1  LIG  -0.1204   0.0000 
4     N1       3.7079   -7.0675   -0.7406 N.3     1  LIG  -0.5430  -0.6390 
5     N2       2.5477   -6.3011   -0.8342 N.am    1  LIG  -0.4397  -0.4210 
6     C4       1.8350   -5.9994    0.3155 C.2     1  LIG   0.6441   0.5438 
7     O1       2.1540   -6.3528    1.4483 O.2     1  LIG  -0.5893  -0.5700 
8     C5       0.6148   -5.1739    0.1245 C.ar    1  LIG  -0.1036   0.0862 
9     C6      -0.1183   -5.1966   -1.0625 C.ar    1  LIG  -0.2191  -0.1500 
10    C7      -1.2514   -4.4006   -1.1395 C.ar    1  LIG   0.3883   0.1600 
11    N3      -1.6925   -3.6082   -0.1383 N.ar    1  LIG  -0.6474  -0.6200 
12    C8      -0.9666   -3.6183    1.0006 C.ar    1  LIG   0.3889   0.1600 
13    C9       0.1787   -4.3765    1.1843 C.ar    1  LIG  -0.1977  -0.1500 
14    H1       3.8862   -7.2606    0.2467 H       1  LIG   0.3641   0.3600 
15    H2       2.3043   -5.9337   -1.7484 H       1  LIG   0.3299   0.3700 
16    H3       5.6670   -8.2822   -2.0976 H       1  LIG   0.0477   0.0000 
17    H4       5.3847   -9.1913   -0.6013 H       1  LIG   0.0382   0.0000 
18    H5       4.9298   -9.8874   -2.1652 H       1  LIG   0.0423   0.0000 
19    H6       3.2238   -8.1271   -2.4994 H       1  LIG   0.0605   0.0000 
20    H7       1.6000   -8.8988   -0.7590 H       1  LIG   0.0438   0.0000 
21    H8       2.5745  -10.2501   -1.3426 H       1  LIG   0.0400   0.0000 
22    H9       2.9323   -9.5220    0.2309 H       1  LIG   0.0491   0.0000 
23    H10      0.1511   -5.8212   -1.9062 H       1  LIG   0.1526   0.1500 
24    H11     -1.8575   -4.3843   -2.0399 H       1  LIG   0.0280   0.1500 
25    H12     -1.3420   -2.9783    1.7927 H       1  LIG   0.0299   0.1500 
26    H13      0.7122   -4.3331    2.1281 H       1  LIG   0.1644   0.1500 
@<TRIPOS>BOND
1     1     2     1
2     1     16    1
3     1     17    1
4     1     18    1
5     2     3     1
6     2     4     1
7     2     19    1
8     3     20    1
9     3     21    1
10    3     22    1
11    4     5     1
12    4     14    1
13    5     6     am
14    5     15    1
15    6     7     2
16    6     8     1
17    8     13    ar
18    8     9     ar
19    9     10    ar
20    9     23    1
21    10    11    ar
22    10    24    1
23    11    12    ar
24    12    13    ar
25    12    25    1
26    13    26    1
@<TRIPOS>SUBSTRUCTURE
1   LIG    1    
 
########## Number      : 364
########## Name        : ZINC00001580
########## Description : AM1BCC_CHARGES =  -0.0001 ORIGINAL_CHARGES =  -0.0000

@<TRIPOS>MOLECULE
ZINC00001580
23    23    1     0     0    
SMALL
USER_CHARGES
****
****
@<TRIPOS>ATOM
1     C1       1.9412    0.8167    4.2633 C.3     1  LIG  -0.0853   0.0000 
2     C2       2.6493    0.0972    3.1113 C.3     1  LIG  -0.0918   0.1800 
3     C3       4.0061    0.7491    2.8428 C.3     1  LIG  -0.0982   0.0000 
4     C4       2.8185   -1.3700    3.4064 C.2     1  LIG   0.4598   0.0065 
5     N1       2.8443   -1.8968    4.6197 N.2     1  LIG  -0.6732  -0.5653 
6     C5       3.0261   -3.2409    4.4489 C.2     1  LIG   0.4242   0.0772 
7     C6       3.1324   -3.5415    3.1158 C.2     1  LIG  -0.3656  -0.0716 
8     N2       2.9843   -2.3543    2.4421 N.pl3   1  LIG  -0.1552   0.0476 
9     C7       2.9811   -2.1624    1.0096 C.3     1  LIG   0.0118   0.2556 
10    N3       3.3432   -4.8175    2.5196 N.pl3   1  LIG   0.3611   0.9600 
11    O1       3.8341   -4.8561    1.3864 O.2     1  LIG  -0.2294  -0.5200 
12    O2       3.0331   -5.7998    3.2044 O.3     1  LIG  -0.1946  -0.5200 
13    H1       0.9645    0.3635    4.4669 H       1  LIG   0.0510   0.0000 
14    H2       2.5278    0.7760    5.1882 H       1  LIG   0.0597   0.0000 
15    H3       1.7761    1.8713    4.0175 H       1  LIG   0.0390   0.0000 
16    H4       2.0135    0.2224    2.2279 H       1  LIG   0.0587   0.0000 
17    H5       4.5108    0.2809    1.9907 H       1  LIG   0.0352   0.0000 
18    H6       3.8876    1.8139    2.6153 H       1  LIG   0.0480   0.0000 
19    H7       4.6710    0.6600    3.7096 H       1  LIG   0.0565   0.0000 
20    H8       3.0814   -3.9104    5.2959 H       1  LIG   0.0702   0.1500 
21    H9       2.3025   -2.8905    0.5577 H       1  LIG   0.0805   0.0000 
22    H10      2.6335   -1.1627    0.7500 H       1  LIG   0.0634   0.0000 
23    H11      4.0020   -2.2956    0.6433 H       1  LIG   0.0741   0.0000 
@<TRIPOS>BOND
1     1     2     1
2     1     13    1
3     1     14    1
4     1     15    1
5     2     3     1
6     2     4     1
7     2     16    1
8     3     17    1
9     3     18    1
10    3     19    1
11    4     8     1
12    4     5     2
13    5     6     1
14    6     7     2
15    6     20    1
16    7     8     1
17    7     10    1
18    8     9     1
19    9     21    1
20    9     22    1
21    9     23    1
22    10    11    2
23    10    12    1
@<TRIPOS>SUBSTRUCTURE
1   LIG    1    
 
########## Number      : 365
########## Name        : ZINC00001584
########## Description : AM1BCC_CHARGES =  -1.0000 ORIGINAL_CHARGES =  -1.0000

@<TRIPOS>MOLECULE
ZINC00001584
34    36    1     0     0    
SMALL
USER_CHARGES
****
****
@<TRIPOS>ATOM
1     C1       7.1202   -8.4301   -0.2772 C.3     1  LIG  -0.1077   0.0000 
2     C2       6.7150   -7.3951    0.7640 C.3     1  LIG   0.2238   0.3691 
3     N1       5.7770   -7.8606    1.8069 N.pl3   1  LIG  -0.5311  -0.5691 
4     C3       5.2102   -9.1250    1.8485 C.2     1  LIG   0.0627  -0.0500 
5     C4       4.3721   -9.6029    2.7762 C.2     1  LIG  -0.2665  -0.2356 
6     C5       3.9992   -8.6990    3.8895 C.2     1  LIG   0.5982   0.4694 
7     O1       3.2839   -9.0681    4.8128 O.2     1  LIG  -0.5432  -0.5700 
8     C6       4.5467   -7.3198    3.8557 C.ar    1  LIG  -0.2017   0.0862 
9     C7       5.4210   -6.9257    2.8225 C.ar    1  LIG   0.2099   0.1000 
10    C8       5.9006   -5.5953    2.8600 C.ar    1  LIG  -0.2244  -0.1500 
11    C9       5.5381   -4.6876    3.8771 C.ar    1  LIG   0.0241  -0.0230 
12    C10      4.6679   -5.1314    4.8761 C.ar    1  LIG   0.0296   0.1900 
13    C11      4.1752   -6.4329    4.8708 C.ar    1  LIG  -0.0623  -0.1500 
14    F1       4.2369   -4.3291    5.8586 F       1  LIG  -0.1505  -0.1900 
15    N2       6.0590   -3.3532    3.8674 N.pl3   1  LIG   0.0101   0.3262 
16    C12      6.7606   -2.7532    2.8323 C.2     1  LIG  -0.1589  -0.3016 
17    C13      7.0957   -1.4660    3.1896 C.2     1  LIG  -0.2024  -0.1500 
18    C14      6.5973   -1.2514    4.4860 C.2     1  LIG  -0.2115  -0.1500 
19    C15      5.9720   -2.4137    4.8808 C.2     1  LIG  -0.1360  -0.3016 
20    C16      3.8214  -11.0271    2.6476 C.2     1  LIG   0.9303   1.0500 
21    O2       2.6001  -11.1667    2.9433 O.co2   1  LIG  -0.7892  -0.9000 
22    H1       7.8350   -7.9900   -0.9807 H       1  LIG   0.0331   0.0000 
23    H2       7.6028   -9.2971    0.1858 H       1  LIG   0.0600   0.0000 
24    H3       6.2580   -8.7736   -0.8579 H       1  LIG   0.0548   0.0000 
25    H4       7.6405   -7.0480    1.2409 H       1  LIG   0.0354   0.0000 
26    H5       6.2673   -6.5494    0.2267 H       1  LIG   0.0312   0.0000 
27    H6       5.4916   -9.7642    1.0203 H       1  LIG   0.1786   0.1500 
28    H7       6.5866   -5.2733    2.0853 H       1  LIG   0.1386   0.1500 
29    H8       3.4954   -6.7364    5.6627 H       1  LIG   0.1743   0.1500 
30    H9       6.9611   -3.2629    1.9013 H       1  LIG   0.1652   0.1500 
31    H10      7.6401   -0.7643    2.5731 H       1  LIG   0.1434   0.1500 
32    H11      6.6847   -0.3526    5.0804 H       1  LIG   0.1448   0.1500 
33    H12      5.4967   -2.6259    5.8261 H       1  LIG   0.1779   0.1500 
34    O3       4.6471  -11.8995    2.2491 O.co2   1  LIG  -0.8406  -0.9000 
@<TRIPOS>BOND
1     1     2     1
2     1     22    1
3     1     23    1
4     1     24    1
5     2     3     1
6     2     25    1
7     2     26    1
8     3     9     1
9     3     4     1
10    4     5     2
11    4     27    1
12    5     6     1
13    5     20    1
14    6     7     2
15    6     8     1
16    8     13    ar
17    8     9     ar
18    9     10    ar
19    10    11    ar
20    10    28    1
21    11    12    ar
22    11    15    1
23    12    13    ar
24    12    14    1
25    13    29    1
26    15    19    1
27    15    16    1
28    16    17    2
29    16    30    1
30    17    18    1
31    17    31    1
32    18    19    2
33    18    32    1
34    19    33    1
35    20    21    2
36    20    34    1
@<TRIPOS>SUBSTRUCTURE
1   LIG    1    
 
########## Number      : 366
########## Name        : ZINC00001586
########## Description : AM1BCC_CHARGES =  -0.0001 ORIGINAL_CHARGES =   0.0000

@<TRIPOS>MOLECULE
ZINC00001586
29    29    1     0     0    
SMALL
USER_CHARGES
****
****
@<TRIPOS>ATOM
1     C1       3.7763  -10.1358   -0.0853 C.3     1  LIG  -0.0894   0.0000 
2     C2       3.1451   -8.7465   -0.1438 C.3     1  LIG  -0.0961   0.0000 
3     C3       1.6690   -8.8468   -0.5336 C.3     1  LIG  -0.0887   0.0000 
4     C4       3.3198   -8.0248    1.1988 C.3     1  LIG   0.1420   0.2800 
5     O1       2.7777   -6.6925    1.1397 O.3     1  LIG  -0.4433  -0.4300 
6     C5       3.5885   -5.7163    0.6593 C.2     1  LIG   0.6554   0.6338 
7     O2       4.7401   -5.8516    0.2770 O.2     1  LIG  -0.5549  -0.5700 
8     C6       2.8772   -4.4130    0.6558 C.ar    1  LIG  -0.1904   0.0862 
9     C7       1.5322   -4.2899    1.0206 C.ar    1  LIG  -0.0265  -0.1500 
10    C8       0.9103   -3.0371    0.9959 C.ar    1  LIG  -0.2219  -0.1500 
11    C9       1.6161   -1.8908    0.6153 C.ar    1  LIG   0.1914   0.1000 
12    C10      2.9571   -2.0244    0.2413 C.ar    1  LIG  -0.2193  -0.1500 
13    C11      3.5864   -3.2728    0.2630 C.ar    1  LIG  -0.0288  -0.1500 
14    N1       0.9891   -0.6555    0.5721 N.pl3   1  LIG  -0.8352  -0.9000 
15    H1       0.0316   -0.5568    0.8819 H       1  LIG   0.4056   0.4000 
16    H2       1.5134    0.1762    0.3355 H       1  LIG   0.4059   0.4000 
17    H3       4.8429  -10.0681    0.1538 H       1  LIG   0.0384   0.0000 
18    H4       3.2966  -10.7592    0.6769 H       1  LIG   0.0316   0.0000 
19    H5       3.6822  -10.6470   -1.0492 H       1  LIG   0.0386   0.0000 
20    H6       3.6508   -8.1678   -0.9266 H       1  LIG   0.0676   0.0000 
21    H7       1.2205   -7.8540   -0.6433 H       1  LIG   0.0436   0.0000 
22    H8       1.5555   -9.3678   -1.4903 H       1  LIG   0.0341   0.0000 
23    H9       1.0960   -9.3967    0.2207 H       1  LIG   0.0310   0.0000 
24    H10      2.7784   -8.5528    1.9920 H       1  LIG   0.0628   0.0000 
25    H11      4.3735   -7.9913    1.5016 H       1  LIG   0.0641   0.0000 
26    H12      0.9425   -5.1505    1.3241 H       1  LIG   0.1530   0.1500 
27    H13     -0.1374   -2.9648    1.2792 H       1  LIG   0.1366   0.1500 
28    H14      3.5278   -1.1528   -0.0711 H       1  LIG   0.1378   0.1500 
29    H15      4.6313   -3.3356   -0.0312 H       1  LIG   0.1549   0.1500 
@<TRIPOS>BOND
1     1     2     1
2     1     17    1
3     1     18    1
4     1     19    1
5     2     3     1
6     2     4     1
7     2     20    1
8     3     21    1
9     3     22    1
10    3     23    1
11    4     5     1
12    4     24    1
13    4     25    1
14    5     6     1
15    6     7     2
16    6     8     1
17    8     13    ar
18    8     9     ar
19    9     10    ar
20    9     26    1
21    10    11    ar
22    10    27    1
23    11    12    ar
24    11    14    1
25    12    13    ar
26    12    28    1
27    13    29    1
28    14    15    1
29    14    16    1
@<TRIPOS>SUBSTRUCTURE
1   LIG    1    
 
########## Number      : 367
########## Name        : ZINC00001587
########## Description : AM1BCC_CHARGES =   0.0003 ORIGINAL_CHARGES =   0.0000

@<TRIPOS>MOLECULE
ZINC00001587
30    31    1     0     0    
SMALL
USER_CHARGES
****
****
@<TRIPOS>ATOM
1     C1       6.9334  -10.1762   -0.9192 C.3     1  LIG  -0.1419   0.1800 
2     C2       5.8509   -9.2353   -0.5851 C.2     1  LIG   0.2675  -0.0400 
3     C3       5.7112   -7.8724   -0.6575 C.2     1  LIG  -0.3499  -0.1500 
4     C4       4.4016   -7.6179   -0.1711 C.2     1  LIG   0.2555   0.2028 
5     N1       3.7979   -8.7681    0.1715 N.2     1  LIG  -0.2837  -0.4097 
6     O1       4.7079   -9.7748   -0.0895 O.3     1  LIG  -0.1111  -0.0191 
7     C5       3.6860   -6.3548   -0.0093 C.2     1  LIG   0.5715   0.7160 
8     O2       2.5409   -6.3169    0.4377 O.2     1  LIG  -0.5034  -0.5700 
9     N2       4.4075   -5.2332   -0.3969 N.am    1  LIG  -0.3918  -0.4210 
10    N3       3.8140   -3.9784   -0.2912 N.3     1  LIG  -0.5755  -0.6390 
11    C6       4.4709   -3.1854    0.7486 C.3     1  LIG   0.1742   0.4135 
12    C7       3.8236   -1.8307    0.8938 C.ar    1  LIG  -0.0943  -0.1435 
13    C8       2.6654   -1.6777    1.6693 C.ar    1  LIG  -0.0964  -0.1500 
14    C9       2.0543   -0.4286    1.7891 C.ar    1  LIG  -0.1316  -0.1500 
15    C10      2.5905    0.6769    1.1313 C.ar    1  LIG  -0.1211  -0.1500 
16    C11      3.7364    0.5342    0.3508 C.ar    1  LIG  -0.1333  -0.1500 
17    C12      4.3495   -0.7140    0.2293 C.ar    1  LIG  -0.1236  -0.1500 
18    H1       5.3498   -5.2816   -0.7703 H       1  LIG   0.2635   0.3700 
19    H2       3.9165   -3.5138   -1.1936 H       1  LIG   0.3826   0.3600 
20    H3       6.6006  -10.8897   -1.6792 H       1  LIG   0.0730   0.0000 
21    H4       7.8081   -9.6467   -1.3093 H       1  LIG   0.0637   0.0000 
22    H5       7.2427  -10.7362   -0.0314 H       1  LIG   0.0713   0.0000 
23    H6       6.4541   -7.1732   -1.0118 H       1  LIG   0.1747   0.1500 
24    H7       4.4196   -3.7046    1.7146 H       1  LIG   0.0674   0.0000 
25    H8       5.5374   -3.0599    0.5200 H       1  LIG   0.0185   0.0000 
26    H9       2.2324   -2.5329    2.1827 H       1  LIG   0.1471   0.1500 
27    H10      1.1585   -0.3191    2.3937 H       1  LIG   0.1356   0.1500 
28    H11      2.1139    1.6484    1.2244 H       1  LIG   0.1327   0.1500 
29    H12      4.1521    1.3950   -0.1652 H       1  LIG   0.1321   0.1500 
30    H13      5.2398   -0.8092   -0.3873 H       1  LIG   0.1270   0.1500 
@<TRIPOS>BOND
1     1     2     1
2     1     20    1
3     1     21    1
4     1     22    1
5     2     6     1
6     2     3     2
7     3     4     1
8     3     23    1
9     4     5     2
10    4     7     1
11    5     6     1
12    7     8     2
13    7     9     am
14    9     10    1
15    9     18    1
16    10    11    1
17    10    19    1
18    11    12    1
19    11    24    1
20    11    25    1
21    12    17    ar
22    12    13    ar
23    13    14    ar
24    13    26    1
25    14    15    ar
26    14    27    1
27    15    16    ar
28    15    28    1
29    16    17    ar
30    16    29    1
31    17    30    1
@<TRIPOS>SUBSTRUCTURE
1   LIG    1    
 
########## Number      : 368
########## Name        : ZINC00001590
########## Description : AM1BCC_CHARGES =   0.0002 ORIGINAL_CHARGES =   0.0000

@<TRIPOS>MOLECULE
ZINC00001590
17    17    1     0     0    
SMALL
USER_CHARGES
****
****
@<TRIPOS>ATOM
1     C1       5.4171   -8.8438   -0.2763 C.ar    1  LIG  -0.1948  -0.1500 
2     C2       5.8546   -9.9164    0.4844 C.ar    1  LIG   0.3876   0.1600 
3     N1       5.3293  -11.1585    0.4132 N.ar    1  LIG  -0.6450  -0.6200 
4     C3       4.3127  -11.3320   -0.4593 C.ar    1  LIG   0.3871   0.1600 
5     C4       3.7997  -10.3292   -1.2687 C.ar    1  LIG  -0.2163  -0.1500 
6     C5       4.3734   -9.0604   -1.1784 C.ar    1  LIG  -0.1061   0.0862 
7     C6       3.8911   -7.9129   -1.9906 C.2     1  LIG   0.6315   0.5438 
8     O1       4.0441   -6.7692   -1.5684 O.2     1  LIG  -0.5890  -0.5700 
9     N2       3.3078   -8.2333   -3.2061 N.am    1  LIG  -0.4341  -0.4210 
10    N3       2.8284   -7.2160   -4.0205 N.3     1  LIG  -0.6304  -0.7290 
11    H1       3.2438   -9.1819   -3.5610 H       1  LIG   0.3265   0.3700 
12    H2       2.1449   -6.6879   -3.4768 H       1  LIG   0.3582   0.3600 
13    H3       3.6023   -6.5728   -4.1911 H       1  LIG   0.3453   0.3600 
14    H4       5.8892   -7.8731   -0.1661 H       1  LIG   0.1676   0.1500 
15    H5       6.6666   -9.7989    1.1949 H       1  LIG   0.0306   0.1500 
16    H6       3.8995  -12.3353   -0.4903 H       1  LIG   0.0288   0.1500 
17    H7       2.9657  -10.5508   -1.9244 H       1  LIG   0.1527   0.1500 
@<TRIPOS>BOND
1     1     6     ar
2     1     2     ar
3     1     14    1
4     2     3     ar
5     2     15    1
6     3     4     ar
7     4     5     ar
8     4     16    1
9     5     6     ar
10    5     17    1
11    6     7     1
12    7     8     2
13    7     9     am
14    9     10    1
15    9     11    1
16    10    12    1
17    10    13    1
@<TRIPOS>SUBSTRUCTURE
1   LIG    1    
 
########## Number      : 369
########## Name        : ZINC00001594
########## Description : AM1BCC_CHARGES =  -0.0000 ORIGINAL_CHARGES =   0.0000

@<TRIPOS>MOLECULE
ZINC00001594
31    32    1     0     0    
SMALL
USER_CHARGES
****
****
@<TRIPOS>ATOM
1     C1       6.5389   -9.3548   -1.2277 C.3     1  LIG  -0.0920   0.0000 
2     C2       5.8080   -8.3383   -0.3468 C.3     1  LIG  -0.0573   0.0000 
3     C3       6.7628   -7.8020    0.7224 C.3     1  LIG  -0.0987   0.0000 
4     C4       5.2180   -7.2146   -1.2229 C.3     1  LIG  -0.0741   0.1382 
5     C5       4.3407   -6.2511   -0.4604 C.2     1  LIG   0.2837  -0.0615 
6     O1       3.1137   -6.8114   -0.1358 O.3     1  LIG  -0.4919  -0.5267 
7     C6       4.6572   -4.9854   -0.1376 C.2     1  LIG  -0.4562   0.0288 
8     C7       3.7402   -4.0640    0.5998 C.2     1  LIG   0.6105   0.4694 
9     O2       2.6187   -4.2903    1.0019 O.2     1  LIG  -0.5618  -0.5700 
10    C8       4.4835   -2.8080    0.7416 C.ar    1  LIG  -0.1457   0.0862 
11    C9       4.0663   -1.6398    1.3507 C.ar    1  LIG  -0.0701  -0.1500 
12    C10      4.9597   -0.5652    1.3623 C.ar    1  LIG  -0.1223  -0.1500 
13    C11      6.2343   -0.6778    0.7736 C.ar    1  LIG  -0.1179  -0.1500 
14    C12      6.6401   -1.8673    0.1619 C.ar    1  LIG  -0.0745  -0.1500 
15    C13      5.7448   -2.9203    0.1583 C.ar    1  LIG  -0.1436   0.0862 
16    C14      5.9340   -4.2599   -0.4134 C.2     1  LIG   0.6190   0.4694 
17    O3       6.9349   -4.6513   -0.9728 O.2     1  LIG  -0.5341  -0.5700 
18    H1       5.8601   -9.7830   -1.9728 H       1  LIG   0.0348   0.0000 
19    H2       7.3772   -8.8910   -1.7587 H       1  LIG   0.0405   0.0000 
20    H3       6.9340  -10.1794   -0.6249 H       1  LIG   0.0397   0.0000 
21    H4       4.9891   -8.8644    0.1608 H       1  LIG   0.0584   0.0000 
22    H5       6.2457   -7.1416    1.4253 H       1  LIG   0.0345   0.0000 
23    H6       7.1921   -8.6244    1.3049 H       1  LIG   0.0382   0.0000 
24    H7       7.5894   -7.2423    0.2720 H       1  LIG   0.0507   0.0000 
25    H8       6.0228   -6.6995   -1.7554 H       1  LIG   0.1013   0.0000 
26    H9       4.6028   -7.6655   -2.0141 H       1  LIG   0.0749   0.0000 
27    H10      2.5808   -6.1542    0.3461 H       1  LIG   0.4656   0.4500 
28    H11      3.0855   -1.5521    1.8045 H       1  LIG   0.1541   0.1500 
29    H12      4.6691    0.3714    1.8318 H       1  LIG   0.1398   0.1500 
30    H13      6.9104    0.1733    0.7967 H       1  LIG   0.1397   0.1500 
31    H14      7.6220   -1.9524   -0.2904 H       1  LIG   0.1548   0.1500 
@<TRIPOS>BOND
1     1     2     1
2     1     18    1
3     1     19    1
4     1     20    1
5     2     3     1
6     2     4     1
7     2     21    1
8     3     22    1
9     3     23    1
10    3     24    1
11    4     5     1
12    4     25    1
13    4     26    1
14    5     7     2
15    5     6     1
16    6     27    1
17    7     8     1
18    7     16    1
19    8     9     2
20    8     10    1
21    10    15    ar
22    10    11    ar
23    11    12    ar
24    11    28    1
25    12    13    ar
26    12    29    1
27    13    14    ar
28    13    30    1
29    14    15    ar
30    14    31    1
31    15    16    1
32    16    17    2
@<TRIPOS>SUBSTRUCTURE
1   LIG    1    
 
########## Number      : 370
########## Name        : ZINC00001595
########## Description : AM1BCC_CHARGES =  -1.0000 ORIGINAL_CHARGES =  -1.0000

@<TRIPOS>MOLECULE
ZINC00001595
31    33    1     0     0    
SMALL
USER_CHARGES
****
****
@<TRIPOS>ATOM
1     C1       6.2636   -8.8836    0.1739 C.ar    1  LIG  -0.1283  -0.1500 
2     C2       7.2947   -8.6541    1.0804 C.ar    1  LIG  -0.1338  -0.1500 
3     C3       7.4744   -7.3817    1.6214 C.ar    1  LIG  -0.0861  -0.1500 
4     C4       6.6141   -6.3343    1.2620 C.ar    1  LIG  -0.1268   0.0862 
5     C5       5.5865   -6.5555    0.3418 C.ar    1  LIG  -0.0923  -0.1435 
6     C6       5.4142   -7.8399   -0.1947 C.ar    1  LIG  -0.1196  -0.1500 
7     C7       4.6796   -5.4374   -0.0572 C.3     1  LIG   0.1741   0.4235 
8     O1       3.8710   -5.0858    1.0587 O.3     1  LIG  -0.3303  -0.3625 
9     C8       4.4289   -4.1666    1.9041 C.ar    1  LIG   0.1293   0.0825 
10    C9       3.4925   -3.2804    2.4560 C.ar    1  LIG  -0.1754  -0.1500 
11    C10      3.8903   -2.2626    3.3202 C.ar    1  LIG  -0.0691  -0.1500 
12    C11      5.2365   -2.1159    3.6550 C.ar    1  LIG  -0.0415  -0.1435 
13    C12      6.1679   -3.0239    3.1288 C.ar    1  LIG  -0.0763  -0.1500 
14    C13      5.7805   -4.0628    2.2578 C.ar    1  LIG  -0.2349   0.0862 
15    C14      6.8666   -4.9976    1.8393 C.2     1  LIG   0.5992   0.3976 
16    O2       8.0413   -4.6720    2.0026 O.2     1  LIG  -0.5426  -0.5700 
17    C15      5.6750   -1.0305    4.5997 C.3     1  LIG  -0.1804   0.0375 
18    C16      5.5804   -1.5328    6.0363 C.2     1  LIG   0.9192   0.9060 
19    O3       4.4808   -1.3021    6.6152 O.co2   1  LIG  -0.8441  -0.9000 
20    H1       6.1215   -9.8743   -0.2484 H       1  LIG   0.1239   0.1500 
21    H2       7.9592   -9.4646    1.3656 H       1  LIG   0.1287   0.1500 
22    H3       8.2849   -7.2199    2.3281 H       1  LIG   0.1488   0.1500 
23    H4       4.6158   -8.0371   -0.9061 H       1  LIG   0.1284   0.1500 
24    H5       5.2348   -4.5808   -0.4631 H       1  LIG   0.0524   0.0000 
25    H6       4.0003   -5.7599   -0.8547 H       1  LIG   0.0650   0.0000 
26    H7       2.4391   -3.3732    2.2005 H       1  LIG   0.1354   0.1500 
27    H8       3.1437   -1.5873    3.7303 H       1  LIG   0.1747   0.1500 
28    H9       7.2095   -2.9199    3.4303 H       1  LIG   0.1484   0.1500 
29    H10      6.7025   -0.7190    4.3755 H       1  LIG   0.0394   0.0000 
30    H11      5.0520   -0.1372    4.4681 H       1  LIG   0.0407   0.0000 
31    O4       6.6198   -2.1003    6.4776 O.co2   1  LIG  -0.8261  -0.9000 
@<TRIPOS>BOND
1     1     6     ar
2     1     2     ar
3     1     20    1
4     2     3     ar
5     2     21    1
6     3     4     ar
7     3     22    1
8     4     15    1
9     4     5     ar
10    5     6     ar
11    5     7     1
12    6     23    1
13    7     8     1
14    7     24    1
15    7     25    1
16    8     9     1
17    9     14    ar
18    9     10    ar
19    10    11    ar
20    10    26    1
21    11    12    ar
22    11    27    1
23    12    13    ar
24    12    17    1
25    13    14    ar
26    13    28    1
27    14    15    1
28    15    16    2
29    17    18    1
30    17    29    1
31    17    30    1
32    18    19    2
33    18    31    1
@<TRIPOS>SUBSTRUCTURE
1   LIG    1    
 
########## Number      : 371
########## Name        : ZINC00001600
########## Description : AM1BCC_CHARGES =   0.9999 ORIGINAL_CHARGES =   1.0000

@<TRIPOS>MOLECULE
ZINC00001600
40    41    1     0     0    
SMALL
USER_CHARGES
****
****
@<TRIPOS>ATOM
1     C1       4.3969   -8.1830    1.8923 C.3     1  LIG  -0.0937   0.0000 
2     C2       4.5942   -6.7989    1.2979 C.3     1  LIG  -0.1717   0.0610 
3     C3       3.2700   -6.0832    1.0489 C.2     1  LIG   0.5689   0.4480 
4     O1       2.2122   -6.7145    0.9948 O.2     1  LIG  -0.5305  -0.5700 
5     C4       3.3012   -4.5354    0.8728 C.3     1  LIG  -0.1045   0.2045 
6     C5       4.3179   -4.1640   -0.2408 C.3     1  LIG  -0.1016   0.0000 
7     C6       3.9010   -4.6427   -1.6267 C.3     1  LIG   0.1080   0.5030 
8     C7       1.4991   -4.4308   -0.9899 C.3     1  LIG   0.1040   0.5030 
9     C8       1.9057   -4.0089    0.4203 C.3     1  LIG  -0.0954   0.0000 
10    C9       2.1635   -4.3531   -3.3874 C.3     1  LIG   0.0850   0.5030 
11    C10      3.6285   -3.9166    2.2496 C.ar    1  LIG  -0.0736  -0.1435 
12    C11      2.7862   -4.1805    3.3505 C.ar    1  LIG  -0.1641  -0.1500 
13    C12      3.0494   -3.6488    4.6164 C.ar    1  LIG  -0.0723  -0.1500 
14    C13      4.1638   -2.8422    4.8167 C.ar    1  LIG  -0.1909  -0.1500 
15    C14      5.0083   -2.5781    3.7445 C.ar    1  LIG   0.1420   0.0825 
16    C15      4.7526   -3.1055    2.4762 C.ar    1  LIG  -0.1638  -0.1500 
17    O2       6.1178   -1.7945    3.9006 O.3     1  LIG  -0.4903  -0.5325 
18    H1       6.1646   -1.5039    4.8275 H       1  LIG   0.4359   0.4500 
19    H2       5.3647   -8.6546    2.0886 H       1  LIG   0.0566   0.0000 
20    H3       3.8429   -8.1292    2.8353 H       1  LIG   0.0548   0.0000 
21    H4       3.8360   -8.8296    1.2094 H       1  LIG   0.0554   0.0000 
22    H5       5.1262   -6.8837    0.3454 H       1  LIG   0.0615   0.0000 
23    H6       5.2022   -6.2059    1.9872 H       1  LIG   0.0859   0.0000 
24    H7       4.4292   -3.0718   -0.2903 H       1  LIG   0.0810   0.0000 
25    H8       5.3150   -4.5620   -0.0186 H       1  LIG   0.1060   0.0000 
26    H9       4.6195   -4.2993   -2.3785 H       1  LIG   0.1024   0.0000 
27    H10      3.8066   -5.7321   -1.6872 H       1  LIG   0.1068   0.0000 
28    H11      0.5786   -3.9163   -1.2865 H       1  LIG   0.1008   0.0000 
29    H12      1.3454   -5.5108   -1.0787 H       1  LIG   0.1292   0.0000 
30    H13      1.1152   -4.3392    1.1056 H       1  LIG   0.1158   0.0000 
31    H14      1.9039   -2.9103    0.4663 H       1  LIG   0.0768   0.0000 
32    H15      1.2225   -3.8367   -3.5943 H       1  LIG   0.1048   0.0000 
33    H16      2.9460   -3.9807   -4.0537 H       1  LIG   0.1018   0.0000 
34    H17      2.0471   -5.4358   -3.4852 H       1  LIG   0.1083   0.0000 
35    H18      1.9095   -4.8147    3.2364 H       1  LIG   0.1422   0.1500 
36    H19      2.3821   -3.8693    5.4450 H       1  LIG   0.1536   0.1500 
37    H20      4.3623   -2.4334    5.8026 H       1  LIG   0.1542   0.1500 
38    H21      5.4534   -2.8703    1.6810 H       1  LIG   0.1468   0.1500 
39    N1       2.5671   -4.0381   -1.9727 N.4     1  LIG  -0.6822  -0.9590 
40    H22      2.6688   -3.0148   -1.9234 H       1  LIG   0.4460   0.4500 
@<TRIPOS>BOND
1     1     2     1
2     1     19    1
3     1     20    1
4     1     21    1
5     2     3     1
6     2     22    1
7     2     23    1
8     3     4     2
9     3     5     1
10    5     9     1
11    5     6     1
12    5     11    1
13    6     7     1
14    6     24    1
15    6     25    1
16    7     26    1
17    7     27    1
18    7     39    1
19    8     9     1
20    8     28    1
21    8     29    1
22    8     39    1
23    9     30    1
24    9     31    1
25    10    32    1
26    10    33    1
27    10    34    1
28    10    39    1
29    11    16    ar
30    11    12    ar
31    12    13    ar
32    12    35    1
33    13    14    ar
34    13    36    1
35    14    15    ar
36    14    37    1
37    15    16    ar
38    15    17    1
39    16    38    1
40    17    18    1
41    39    40    1
@<TRIPOS>SUBSTRUCTURE
1   LIG    1    
 
########## Number      : 372
########## Name        : ZINC00001603
########## Description : AM1BCC_CHARGES =   1.0003 ORIGINAL_CHARGES =   1.0000

@<TRIPOS>MOLECULE
ZINC00001603
55    57    1     0     0    
SMALL
USER_CHARGES
****
****
@<TRIPOS>ATOM
1     C1       6.2280   -9.9771   -2.9741 C.3     1  LIG  -0.1362   0.0000 
2     C2       6.6642  -10.9027   -1.8517 C.3     1  LIG   0.1129   0.5030 
3     C3       5.8610  -12.0087    0.2461 C.3     1  LIG   0.1135   0.5030 
4     C4       4.6561  -12.1452    1.1600 C.3     1  LIG  -0.1379   0.0000 
5     C5       5.7764   -9.4850    0.0489 C.3     1  LIG   0.0854   0.5030 
6     C6       4.4374   -8.7613   -0.0301 C.3     1  LIG   0.1129   0.2800 
7     O1       4.5784   -7.5161    0.6535 O.3     1  LIG  -0.3086  -0.3625 
8     C7       3.4816   -6.6969    0.7217 C.ar    1  LIG   0.1037   0.0825 
9     C8       2.2557   -6.9729    0.1031 C.ar    1  LIG  -0.1913  -0.1500 
10    C9       1.2086   -6.0481    0.1502 C.ar    1  LIG  -0.0892  -0.1500 
11    C10      1.3716   -4.8344    0.8110 C.ar    1  LIG  -0.1321  -0.1500 
12    C11      2.5802   -4.5427    1.4376 C.ar    1  LIG  -0.0997  -0.1500 
13    C12      3.6291   -5.4737    1.4041 C.ar    1  LIG  -0.0003  -0.0230 
14    N1       4.8318   -5.1529    2.0978 N.pl3   1  LIG   0.0006   0.3262 
15    C13      5.5843   -3.9956    1.9036 C.2     1  LIG  -0.0871  -0.3316 
16    C14      6.6893   -4.0642    2.7271 C.2     1  LIG  -0.1878  -0.1500 
17    C15      6.6188   -5.2710    3.4452 C.2     1  LIG  -0.1598  -0.1500 
18    C16      5.4569   -5.9322    3.0792 C.2     1  LIG  -0.0779  -0.2046 
19    C17      4.9307   -7.1736    3.6683 C.ar    1  LIG  -0.0012   0.0530 
20    C18      5.7615   -8.2976    3.7888 C.ar    1  LIG  -0.1365  -0.1500 
21    C19      5.2813   -9.4795    4.3565 C.ar    1  LIG  -0.1516  -0.1500 
22    C20      3.9689   -9.5494    4.8174 C.ar    1  LIG  -0.1351  -0.1500 
23    C21      3.1388   -8.4349    4.7200 C.ar    1  LIG  -0.1253  -0.1500 
24    C22      3.6180   -7.2508    4.1555 C.ar    1  LIG  -0.1160  -0.1500 
25    C23      5.2621   -2.9320    0.9092 C.3     1  LIG  -0.0354   0.1800 
26    H1       6.8896  -10.1016   -3.8373 H       1  LIG   0.1015   0.0000 
27    H2       5.2067  -10.2030   -3.2980 H       1  LIG   0.0646   0.0000 
28    H3       6.2679   -8.9249   -2.6780 H       1  LIG   0.0723   0.0000 
29    H4       6.6504  -11.9361   -2.2135 H       1  LIG   0.0994   0.0000 
30    H5       7.6654  -10.6643   -1.4782 H       1  LIG   0.1067   0.0000 
31    H6       5.9391  -12.9035   -0.3802 H       1  LIG   0.0988   0.0000 
32    H7       6.7944  -11.8753    0.8028 H       1  LIG   0.1061   0.0000 
33    H8       4.7538  -13.0470    1.7728 H       1  LIG   0.1004   0.0000 
34    H9       4.5592  -11.2948    1.8400 H       1  LIG   0.0762   0.0000 
35    H10      3.7297  -12.2294    0.5827 H       1  LIG   0.0642   0.0000 
36    H11      6.0702   -9.6678    1.0875 H       1  LIG   0.1267   0.0000 
37    H12      6.5759   -8.8799   -0.3929 H       1  LIG   0.1237   0.0000 
38    H13      4.1796   -8.5837   -1.0808 H       1  LIG   0.0493   0.0000 
39    H14      3.6598   -9.3664    0.4502 H       1  LIG   0.0658   0.0000 
40    H15      2.0799   -7.8966   -0.4394 H       1  LIG   0.1312   0.1500 
41    H16      0.2642   -6.2762   -0.3366 H       1  LIG   0.1500   0.1500 
42    H17      0.5539   -4.1203    0.8467 H       1  LIG   0.1557   0.1500 
43    H18      2.6719   -3.6056    1.9804 H       1  LIG   0.1631   0.1500 
44    H19      7.4700   -3.3183    2.7919 H       1  LIG   0.1626   0.1500 
45    H20      7.3261   -5.6139    4.1891 H       1  LIG   0.1597   0.1500 
46    H21      6.7888   -8.2673    3.4327 H       1  LIG   0.1337   0.1500 
47    H22      5.9323  -10.3452    4.4384 H       1  LIG   0.1271   0.1500 
48    H23      3.5954  -10.4686    5.2591 H       1  LIG   0.1370   0.1500 
49    H24      2.1185   -8.4841    5.0897 H       1  LIG   0.1421   0.1500 
50    H25      2.9550   -6.3902    4.1110 H       1  LIG   0.1459   0.1500 
51    H26      4.9096   -3.3563   -0.0359 H       1  LIG   0.0463   0.0000 
52    H27      4.5028   -2.2503    1.3034 H       1  LIG   0.0511   0.0000 
53    H28      6.1535   -2.3366    0.6830 H       1  LIG   0.0641   0.0000 
54    N2       5.6956  -10.8176   -0.6837 N.4     1  LIG  -0.6869  -0.9590 
55    H29      4.7555  -10.9091   -1.0923 H       1  LIG   0.4419   0.4500 
@<TRIPOS>BOND
1     1     2     1
2     1     26    1
3     1     27    1
4     1     28    1
5     2     29    1
6     2     30    1
7     2     54    1
8     3     4     1
9     3     31    1
10    3     32    1
11    3     54    1
12    4     33    1
13    4     34    1
14    4     35    1
15    5     6     1
16    5     36    1
17    5     37    1
18    5     54    1
19    6     7     1
20    6     38    1
21    6     39    1
22    7     8     1
23    8     13    ar
24    8     9     ar
25    9     10    ar
26    9     40    1
27    10    11    ar
28    10    41    1
29    11    12    ar
30    11    42    1
31    12    13    ar
32    12    43    1
33    13    14    1
34    14    18    1
35    14    15    1
36    15    16    2
37    15    25    1
38    16    17    1
39    16    44    1
40    17    18    2
41    17    45    1
42    18    19    1
43    19    24    ar
44    19    20    ar
45    20    21    ar
46    20    46    1
47    21    22    ar
48    21    47    1
49    22    23    ar
50    22    48    1
51    23    24    ar
52    23    49    1
53    24    50    1
54    25    51    1
55    25    52    1
56    25    53    1
57    54    55    1
@<TRIPOS>SUBSTRUCTURE
1   LIG    1    
 
########## Number      : 373
########## Name        : ZINC00001615
########## Description : AM1BCC_CHARGES =   0.9995 ORIGINAL_CHARGES =   1.0000

@<TRIPOS>MOLECULE
ZINC00001615
48    50    1     0     0    
SMALL
USER_CHARGES
****
****
@<TRIPOS>ATOM
1     C1       0.2800    4.6222    7.8775 C.3     1  LIG  -0.1023   0.0000 
2     C2       1.0455    5.9464    8.0358 C.3     1  LIG  -0.0941   0.0000 
3     C3       0.0990    7.1176    7.6599 C.3     1  LIG   0.0181   0.3691 
4     N1       0.6100    8.4534    8.0536 N.pl3   1  LIG  -0.2028  -0.5691 
5     C4       0.8411    8.7029    9.4339 C.ar    1  LIG   0.0133   0.1000 
6     C5       0.1393    8.0191   10.4482 C.ar    1  LIG  -0.1569  -0.1500 
7     C6       0.3661    8.2755   11.8034 C.ar    1  LIG  -0.0875  -0.1500 
8     C7       1.2990    9.2294   12.1835 C.ar    1  LIG  -0.1312  -0.1500 
9     C8       2.0003    9.9299   11.2079 C.ar    1  LIG  -0.0686  -0.1500 
10    C9       1.7716    9.6796    9.8446 C.ar    1  LIG  -0.0295   0.1015 
11    S1       2.7522   10.5999    8.6740 S.3     1  LIG  -0.2212  -0.2030 
12    C10      1.7502   10.4612    7.2064 C.ar    1  LIG  -0.0524   0.1015 
13    C11      0.8097    9.4258    7.0362 C.ar    1  LIG   0.0413   0.1000 
14    C12      0.0571    9.4353    5.8417 C.ar    1  LIG  -0.1616  -0.1500 
15    C13      0.2538   10.3967    4.8363 C.ar    1  LIG   0.0311   0.1015 
16    C14      1.2285   11.3740    5.0152 C.ar    1  LIG  -0.1580  -0.1500 
17    C15      1.9644   11.4117    6.1967 C.ar    1  LIG  -0.0429  -0.1500 
18    S2      -0.7360   10.2926    3.3495 S.3     1  LIG  -0.1150  -0.3315 
19    C16     -1.2012   12.0307    3.1228 C.3     1  LIG  -0.0810   0.2300 
20    C17      2.2799    5.9210    7.1171 C.3     1  LIG   0.1176   0.5030 
21    C18      4.1124    6.6500    8.6875 C.3     1  LIG   0.0860   0.5030 
22    C19      4.1547    7.3626    6.3106 C.3     1  LIG   0.0868   0.5030 
23    H1      -0.5998    4.6022    8.5294 H       1  LIG   0.0696   0.0000 
24    H2      -0.0571    4.4782    6.8452 H       1  LIG   0.0540   0.0000 
25    H3       0.9150    3.7723    8.1494 H       1  LIG   0.0559   0.0000 
26    H4       1.3420    5.9885    9.0922 H       1  LIG   0.0768   0.0000 
27    H5      -0.0694    7.0339    6.5814 H       1  LIG   0.0744   0.0000 
28    H6      -0.8951    6.9719    8.1010 H       1  LIG   0.0693   0.0000 
29    H7      -0.6165    7.2760   10.2092 H       1  LIG   0.1442   0.1500 
30    H8      -0.1927    7.7300   12.5587 H       1  LIG   0.1531   0.1500 
31    H9       1.4782    9.4306   13.2356 H       1  LIG   0.1567   0.1500 
32    H10      2.7285   10.6745   11.5232 H       1  LIG   0.1588   0.1500 
33    H11     -0.7375    8.7078    5.6904 H       1  LIG   0.1528   0.1500 
34    H12      1.4329   12.1178    4.2505 H       1  LIG   0.1522   0.1500 
35    H13      2.7099   12.1951    6.3190 H       1  LIG   0.1575   0.1500 
36    H14     -1.9553   12.0950    2.3336 H       1  LIG   0.0999   0.0000 
37    H15     -1.6282   12.4397    4.0427 H       1  LIG   0.0765   0.0000 
38    H16     -0.3392   12.6297    2.8188 H       1  LIG   0.0700   0.0000 
39    H17      2.8112    4.9638    7.1733 H       1  LIG   0.0929   0.0000 
40    H18      1.9845    6.0823    6.0736 H       1  LIG   0.0974   0.0000 
41    H19      4.7694    7.4980    8.8992 H       1  LIG   0.1019   0.0000 
42    H20      3.4462    6.4851    9.5363 H       1  LIG   0.1011   0.0000 
43    H21      4.6952    5.7521    8.4658 H       1  LIG   0.0924   0.0000 
44    H22      4.8203    8.1714    6.6235 H       1  LIG   0.1025   0.0000 
45    H23      4.7231    6.4790    6.0089 H       1  LIG   0.0928   0.0000 
46    H24      3.5079    7.7110    5.5010 H       1  LIG   0.1021   0.0000 
47    N2       3.2821    6.9943    7.4803 N.4     1  LIG  -0.6887  -0.9590 
48    H25      2.7542    7.8424    7.7186 H       1  LIG   0.4942   0.4500 
@<TRIPOS>BOND
1     1     2     1
2     1     23    1
3     1     24    1
4     1     25    1
5     2     3     1
6     2     20    1
7     2     26    1
8     3     4     1
9     3     27    1
10    3     28    1
11    4     13    1
12    4     5     1
13    5     10    ar
14    5     6     ar
15    6     7     ar
16    6     29    1
17    7     8     ar
18    7     30    1
19    8     9     ar
20    8     31    1
21    9     10    ar
22    9     32    1
23    10    11    1
24    11    12    1
25    12    17    ar
26    12    13    ar
27    13    14    ar
28    14    15    ar
29    14    33    1
30    15    16    ar
31    15    18    1
32    16    17    ar
33    16    34    1
34    17    35    1
35    18    19    1
36    19    36    1
37    19    37    1
38    19    38    1
39    20    39    1
40    20    40    1
41    20    47    1
42    21    41    1
43    21    42    1
44    21    43    1
45    21    47    1
46    22    44    1
47    22    45    1
48    22    46    1
49    22    47    1
50    47    48    1
@<TRIPOS>SUBSTRUCTURE
1   LIG    1    
 
########## Number      : 374
########## Name        : ZINC00001621
########## Description : AM1BCC_CHARGES =   0.0000 ORIGINAL_CHARGES =  -0.0000

@<TRIPOS>MOLECULE
ZINC00001621
18    18    1     0     0    
SMALL
USER_CHARGES
****
****
@<TRIPOS>ATOM
1     C1       2.5533   -8.4703   -1.2989 C.3     1  LIG   0.0258   0.2900 
2     C2       2.4035   -7.0139   -1.7710 C.3     1  LIG   0.0258   0.2900 
3     C3       2.1299   -6.0530   -0.6012 C.3     1  LIG   0.0258   0.2900 
4     C4       3.1764   -6.1926    0.5175 C.3     1  LIG   0.0258   0.2900 
5     C5       3.3262   -7.6490    0.9896 C.3     1  LIG   0.0258   0.2900 
6     C6       3.5999   -8.6098   -0.1801 C.3     1  LIG   0.0259   0.2900 
7     Cl1      3.6151  -10.3115    0.4254 Cl      1  LIG  -0.1306  -0.2900 
8     Cl2      4.6700   -7.7604    2.1913 Cl      1  LIG  -0.1305  -0.2900 
9     Cl3      2.7107   -5.1482    1.9156 Cl      1  LIG  -0.1305  -0.2900 
10    Cl4      2.1146   -4.3514   -1.2067 Cl      1  LIG  -0.1305  -0.2900 
11    Cl5      1.0597   -6.9024   -2.9727 Cl      1  LIG  -0.1305  -0.2900 
12    Cl6      3.0191   -9.5147   -2.6970 Cl      1  LIG  -0.1305  -0.2900 
13    H1       1.5842   -8.8447   -0.9458 H       1  LIG   0.1047   0.0000 
14    H2       3.3136   -6.7021   -2.2988 H       1  LIG   0.1047   0.0000 
15    H3       1.1284   -6.2430   -0.1948 H       1  LIG   0.1047   0.0000 
16    H4       4.1455   -5.8181    0.1644 H       1  LIG   0.1047   0.0000 
17    H5       2.4161   -7.9608    1.5174 H       1  LIG   0.1047   0.0000 
18    H6       4.6013   -8.4199   -0.5865 H       1  LIG   0.1047   0.0000 
@<TRIPOS>BOND
1     1     6     1
2     1     2     1
3     1     12    1
4     1     13    1
5     2     3     1
6     2     11    1
7     2     14    1
8     3     4     1
9     3     10    1
10    3     15    1
11    4     5     1
12    4     9     1
13    4     16    1
14    5     6     1
15    5     8     1
16    5     17    1
17    6     7     1
18    6     18    1
@<TRIPOS>SUBSTRUCTURE
1   LIG    1    
 
########## Number      : 375
########## Name        : ZINC00001629
########## Description : AM1BCC_CHARGES =   0.0001 ORIGINAL_CHARGES =   0.0000

@<TRIPOS>MOLECULE
ZINC00001629
28    29    1     0     0    
SMALL
USER_CHARGES
****
****
@<TRIPOS>ATOM
1     C1       5.2410   -8.9506    2.6647 C.ar    1  LIG  -0.1526  -0.1500 
2     C2       5.7394  -10.2129    2.3382 C.ar    1  LIG  -0.1432  -0.1500 
3     C3       6.6068  -10.3439    1.2631 C.ar    1  LIG   0.1091   0.1900 
4     C4       6.9725   -9.2375    0.5073 C.ar    1  LIG  -0.1420  -0.1500 
5     C5       6.4724   -7.9736    0.8374 C.ar    1  LIG  -0.1224  -0.1500 
6     C6       5.6184   -7.8107    1.9329 C.ar    1  LIG   0.0489   0.1170 
7     N1       5.0403   -6.5819    2.3415 N.pl3   1  LIG  -0.4297  -0.5470 
8     C7       5.3731   -5.2411    2.0569 C.2     1  LIG   0.5844   0.5000 
9     S1       6.8398   -4.7023    1.4399 S.2     1  LIG  -0.5096  -0.3800 
10    N2       4.3054   -4.4187    2.4746 N.pl3   1  LIG  -0.4377  -0.5470 
11    C8       3.9992   -3.0590    2.2117 C.ar    1  LIG   0.0905   0.1170 
12    C9       4.5162   -2.3123    1.1495 C.ar    1  LIG  -0.1509  -0.1500 
13    C10      4.1300   -0.9783    0.9715 C.ar    1  LIG   0.0491   0.1770 
14    C11      3.2172   -0.3751    1.8327 C.ar    1  LIG  -0.1427  -0.1500 
15    C12      2.6776   -1.1245    2.8729 C.ar    1  LIG   0.0492   0.1770 
16    C13      3.0550   -2.4568    3.0593 C.ar    1  LIG  -0.1827  -0.1500 
17    Cl1      1.5329   -0.4046    3.9397 Cl      1  LIG  -0.0823  -0.1770 
18    Cl2      4.7803   -0.0735   -0.3438 Cl      1  LIG  -0.0738  -0.1770 
19    F1       7.0862  -11.5533    0.9420 F       1  LIG  -0.1378  -0.1900 
20    H1       4.2725   -6.6957    2.9971 H       1  LIG   0.3089   0.3700 
21    H2       3.6611   -4.8612    3.1239 H       1  LIG   0.3103   0.3700 
22    H3       4.5620   -8.8653    3.5106 H       1  LIG   0.1332   0.1500 
23    H4       5.4505  -11.0840    2.9176 H       1  LIG   0.1517   0.1500 
24    H5       7.6340   -9.3562   -0.3456 H       1  LIG   0.1561   0.1500 
25    H6       6.7404   -7.1529    0.1836 H       1  LIG   0.1967   0.1500 
26    H7       5.1832   -2.7508    0.4169 H       1  LIG   0.2081   0.1500 
27    H8       2.9220    0.6607    1.6872 H       1  LIG   0.1653   0.1500 
28    H9       2.6205   -3.0239    3.8806 H       1  LIG   0.1460   0.1500 
@<TRIPOS>BOND
1     1     6     ar
2     1     2     ar
3     1     22    1
4     2     3     ar
5     2     23    1
6     3     4     ar
7     3     19    1
8     4     5     ar
9     4     24    1
10    5     6     ar
11    5     25    1
12    6     7     1
13    7     8     1
14    7     20    1
15    8     9     2
16    8     10    1
17    10    11    1
18    10    21    1
19    11    16    ar
20    11    12    ar
21    12    13    ar
22    12    26    1
23    13    14    ar
24    13    18    1
25    14    15    ar
26    14    27    1
27    15    16    ar
28    15    17    1
29    16    28    1
@<TRIPOS>SUBSTRUCTURE
1   LIG    1    
 
########## Number      : 376
########## Name        : ZINC00001631
########## Description : AM1BCC_CHARGES =  -1.0000 ORIGINAL_CHARGES =  -1.0000

@<TRIPOS>MOLECULE
ZINC00001631
34    36    1     0     0    
SMALL
USER_CHARGES
****
****
@<TRIPOS>ATOM
1     C1       6.1106  -10.3246   -1.0603 C.ar    1  LIG  -0.1673  -0.1500 
2     C2       5.6896   -9.0027   -1.1827 C.ar    1  LIG  -0.1175  -0.1500 
3     C3       5.5519   -8.2015   -0.0468 C.ar    1  LIG  -0.1460  -0.1500 
4     C4       5.8371   -8.7236    1.2244 C.ar    1  LIG   0.0679  -0.0230 
5     C5       6.2602  -10.0540    1.3414 C.ar    1  LIG  -0.1653  -0.1500 
6     C6       6.3950  -10.8484    0.1991 C.ar    1  LIG  -0.1123  -0.1500 
7     N1       5.6931   -7.8972    2.3724 N.pl3   1  LIG   0.1350   0.5926 
8     C7       5.9234   -8.2287    3.6866 C.2     1  LIG  -0.1606  -0.3016 
9     C8       5.6450   -7.1151    4.4519 C.2     1  LIG  -0.1258  -0.1810 
10    C9       5.2578   -6.1256    3.5017 C.2     1  LIG   0.3552   0.2348 
11    N2       5.2822   -6.6125    2.2534 N.2     1  LIG  -0.5232  -0.7068 
12    C10      4.8548   -4.7448    3.7384 C.ar    1  LIG  -0.0776   0.0540 
13    C11      3.6335   -4.2756    3.2345 C.ar    1  LIG  -0.0922  -0.1500 
14    C12      3.2398   -2.9543    3.4555 C.ar    1  LIG  -0.1324  -0.1500 
15    C13      4.0696   -2.0976    4.1768 C.ar    1  LIG   0.0189   0.1770 
16    C14      5.2902   -2.5497    4.6760 C.ar    1  LIG  -0.1263  -0.1500 
17    C15      5.6830   -3.8715    4.4547 C.ar    1  LIG  -0.0899  -0.1500 
18    Cl1      3.5856   -0.4676    4.4496 Cl      1  LIG  -0.1336  -0.1770 
19    C16      5.7267   -7.0262    5.9352 C.3     1  LIG  -0.1615   0.0750 
20    C17      4.3178   -7.0621    6.5197 C.2     1  LIG   0.9230   0.9060 
21    O1       3.7919   -8.2093    6.5921 O.co2   1  LIG  -0.8354  -0.9000 
22    H1       6.2169  -10.9460   -1.9447 H       1  LIG   0.1218   0.1500 
23    H2       5.4672   -8.5929   -2.1640 H       1  LIG   0.1235   0.1500 
24    H3       5.2208   -7.1749   -0.1829 H       1  LIG   0.1568   0.1500 
25    H4       6.4933  -10.5084    2.2989 H       1  LIG   0.1444   0.1500 
26    H5       6.7232  -11.8799    0.2942 H       1  LIG   0.1248   0.1500 
27    H6       6.2493   -9.2123    3.9930 H       1  LIG   0.1823   0.1500 
28    H7       2.9748   -4.9354    2.6742 H       1  LIG   0.1447   0.1500 
29    H8       2.2873   -2.6092    3.0625 H       1  LIG   0.1343   0.1500 
30    H9       5.9440   -1.8864    5.2357 H       1  LIG   0.1363   0.1500 
31    H10      6.6433   -4.2045    4.8406 H       1  LIG   0.1435   0.1500 
32    H11      6.3015   -7.8675    6.3415 H       1  LIG   0.0364   0.0000 
33    H12      6.2492   -6.1161    6.2468 H       1  LIG   0.0426   0.0000 
34    O2       3.8574   -5.9419    6.8809 O.co2   1  LIG  -0.8245  -0.9000 
@<TRIPOS>BOND
1     1     6     ar
2     1     2     ar
3     1     22    1
4     2     3     ar
5     2     23    1
6     3     4     ar
7     3     24    1
8     4     5     ar
9     4     7     1
10    5     6     ar
11    5     25    1
12    6     26    1
13    7     11    1
14    7     8     1
15    8     9     2
16    8     27    1
17    9     10    1
18    9     19    1
19    10    11    2
20    10    12    1
21    12    17    ar
22    12    13    ar
23    13    14    ar
24    13    28    1
25    14    15    ar
26    14    29    1
27    15    16    ar
28    15    18    1
29    16    17    ar
30    16    30    1
31    17    31    1
32    19    20    1
33    19    32    1
34    19    33    1
35    20    21    2
36    20    34    1
@<TRIPOS>SUBSTRUCTURE
1   LIG    1    
 
########## Number      : 377
########## Name        : ZINC00001633
########## Description : AM1BCC_CHARGES =  -0.0001 ORIGINAL_CHARGES =   0.0000

@<TRIPOS>MOLECULE
ZINC00001633
19    18    1     0     0    
SMALL
USER_CHARGES
****
****
@<TRIPOS>ATOM
1     C1       5.4288  -10.1300   -1.8244 C.3     1  LIG   0.1292   0.2800 
2     C2       4.7190   -9.1623   -0.8225 C.3     1  LIG  -0.1444   0.0000 
3     C3       5.3548   -7.7690   -1.0779 C.3     1  LIG   0.1391   0.2800 
4     O1       4.9663   -6.7597   -0.1627 O.3     1  LIG  -0.5918  -0.6800 
5     C4       3.2002   -9.2001   -1.1587 C.3     1  LIG   0.0292   0.2900 
6     Cl1      2.1809   -7.9525   -0.4051 Cl      1  LIG  -0.1721  -0.2900 
7     C5       5.0190   -9.7045    0.6048 C.3     1  LIG   0.0352   0.2900 
8     Cl2      4.3507   -8.7860    1.9722 Cl      1  LIG  -0.1824  -0.2900 
9     O2       4.9581  -11.4675   -1.7146 O.3     1  LIG  -0.5895  -0.6800 
10    H1       3.9947   -6.7244   -0.1522 H       1  LIG   0.4173   0.4000 
11    H2       4.1034  -11.5230   -2.1744 H       1  LIG   0.4006   0.4000 
12    H3       5.2914   -9.8027   -2.8619 H       1  LIG   0.0353   0.0000 
13    H4       6.5081  -10.1528   -1.6342 H       1  LIG   0.0799   0.0000 
14    H5       6.4470   -7.8375   -1.0191 H       1  LIG   0.0666   0.0000 
15    H6       5.1114   -7.4160   -2.0869 H       1  LIG   0.0369   0.0000 
16    H7       3.0546   -9.0841   -2.2383 H       1  LIG   0.0616   0.0000 
17    H8       2.7664  -10.1651   -0.8762 H       1  LIG   0.0792   0.0000 
18    H9       4.6354  -10.7241    0.7160 H       1  LIG   0.0839   0.0000 
19    H10      6.1016   -9.7490    0.7671 H       1  LIG   0.0861   0.0000 
@<TRIPOS>BOND
1     1     2     1
2     1     9     1
3     1     12    1
4     1     13    1
5     2     3     1
6     2     5     1
7     2     7     1
8     3     4     1
9     3     14    1
10    3     15    1
11    4     10    1
12    5     6     1
13    5     16    1
14    5     17    1
15    7     8     1
16    7     18    1
17    7     19    1
18    9     11    1
@<TRIPOS>SUBSTRUCTURE
1   LIG    1    
 
########## Number      : 378
########## Name        : ZINC00001644
########## Description : AM1BCC_CHARGES =   1.0002 ORIGINAL_CHARGES =   1.0000

@<TRIPOS>MOLECULE
ZINC00001644
23    23    1     0     0    
SMALL
USER_CHARGES
****
****
@<TRIPOS>ATOM
1     C1       4.1545   -8.2039   -1.0103 C.ar    1  LIG  -0.1244  -0.1500 
2     C2       3.1418   -7.4111   -1.5527 C.ar    1  LIG  -0.0188  -0.1500 
3     C3       2.3852   -6.5966   -0.7113 C.ar    1  LIG  -0.2945  -0.0090 
4     C4       2.6347   -6.5562    0.6598 C.ar    1  LIG  -0.0172  -0.1500 
5     C5       3.6489   -7.3517    1.1954 C.ar    1  LIG  -0.1240  -0.1500 
6     C6       4.4229   -8.1758    0.3658 C.ar    1  LIG  -0.1509  -0.1435 
7     C7       5.4979   -9.0458    0.9483 C.3     1  LIG   0.1648   0.6465 
8     S1       1.1265   -5.5626   -1.3990 S.o2    1  LIG   1.5176   1.4470 
9     O1       0.9228   -4.4491   -0.4944 O.2     1  LIG  -0.6319  -0.6500 
10    O2       1.4542   -5.3379   -2.7924 O.2     1  LIG  -0.6340  -0.6500 
11    N1      -0.2301   -6.5955   -1.3083 N.pl3   1  LIG  -1.0324  -0.9780 
12    H1       5.7542  -10.9603    1.7438 H       1  LIG   0.4602   0.4500 
13    H2       4.2598  -10.3143    2.0601 H       1  LIG   0.4599   0.4500 
14    H3      -0.9592   -6.2919   -0.6509 H       1  LIG   0.4607   0.4200 
15    H4      -0.0334   -7.5983   -1.2030 H       1  LIG   0.4595   0.4200 
16    H5       4.7367   -8.8413   -1.6719 H       1  LIG   0.1460   0.1500 
17    H6       2.9578   -7.4462   -2.6228 H       1  LIG   0.1824   0.1500 
18    H7       2.0536   -5.9216    1.3229 H       1  LIG   0.1777   0.1500 
19    H8       3.8339   -7.3196    2.2668 H       1  LIG   0.1460   0.1500 
20    H9       6.3068   -9.2121    0.2288 H       1  LIG   0.1185   0.0000 
21    H10      5.9346   -8.5910    1.8438 H       1  LIG   0.1183   0.0000 
22    N2       4.9989  -10.3852    1.3484 N.4     1  LIG  -0.8433  -0.8530 
23    H11      4.6089  -10.8968    0.5459 H       1  LIG   0.4600   0.4500 
@<TRIPOS>BOND
1     1     6     ar
2     1     2     ar
3     1     16    1
4     2     3     ar
5     2     17    1
6     3     4     ar
7     3     8     1
8     4     5     ar
9     4     18    1
10    5     6     ar
11    5     19    1
12    6     7     1
13    7     20    1
14    7     21    1
15    7     22    1
16    8     9     2
17    8     10    2
18    8     11    1
19    11    14    1
20    11    15    1
21    12    22    1
22    13    22    1
23    22    23    1
@<TRIPOS>SUBSTRUCTURE
1   LIG    1    
 
########## Number      : 379
########## Name        : ZINC00001645
########## Description : AM1BCC_CHARGES =  -0.0002 ORIGINAL_CHARGES =  -0.0000

@<TRIPOS>MOLECULE
ZINC00001645
38    39    1     0     0    
SMALL
USER_CHARGES
****
****
@<TRIPOS>ATOM
1     C1       6.3355   -9.3685   -1.6766 C.2     1  LIG  -0.2254  -0.3000 
2     C2       5.7441   -8.5303   -0.8173 C.2     1  LIG  -0.1581  -0.2882 
3     C3       5.9227   -8.5906    0.6715 C.3     1  LIG  -0.0027   0.2817 
4     C4       6.5588   -7.3398    1.2255 C.ar    1  LIG  -0.1156  -0.1435 
5     C5       7.9517   -7.2185    1.2816 C.ar    1  LIG  -0.0868  -0.1500 
6     C6       8.5374   -6.0537    1.7736 C.ar    1  LIG  -0.1614  -0.1500 
7     C7       7.7350   -4.9974    2.2078 C.ar    1  LIG   0.1399   0.0825 
8     C8       6.3336   -5.0834    2.1631 C.ar    1  LIG  -0.1063   0.0000 
9     C9       5.7627   -6.2684    1.6619 C.ar    1  LIG  -0.0661  -0.1500 
10    C10      5.4547   -3.9978    2.6238 C.ar    1  LIG  -0.0793   0.0000 
11    C11      5.2457   -3.8024    4.0008 C.ar    1  LIG  -0.0906  -0.1500 
12    C12      4.4120   -2.7771    4.4747 C.ar    1  LIG  -0.1115  -0.1435 
13    C13      3.7868   -1.9275    3.5538 C.ar    1  LIG  -0.0778  -0.1500 
14    C14      3.9793   -2.1056    2.1846 C.ar    1  LIG  -0.2165  -0.1500 
15    C15      4.8059   -3.1336    1.7280 C.ar    1  LIG   0.1402   0.0825 
16    O1       4.9983   -3.2997    0.3811 O.3     1  LIG  -0.4841  -0.5325 
17    C16      4.2195   -2.5700    5.9568 C.3     1  LIG  -0.0046   0.2817 
18    C17      5.2151   -1.6067    6.5336 C.2     1  LIG  -0.1631  -0.2882 
19    C18      4.8863   -0.4376    7.0955 C.2     1  LIG  -0.2200  -0.3000 
20    O2       8.3944   -3.8859    2.6645 O.3     1  LIG  -0.5001  -0.5325 
21    H1       4.4845   -2.6256   -0.0951 H       1  LIG   0.4188   0.4500 
22    H2       7.7495   -3.1884    2.8665 H       1  LIG   0.4258   0.4500 
23    H3       6.1609   -9.2765   -2.7432 H       1  LIG   0.1117   0.1500 
24    H4       7.0007  -10.1548   -1.3368 H       1  LIG   0.1090   0.1500 
25    H5       5.0817   -7.7630   -1.2111 H       1  LIG   0.1250   0.1500 
26    H6       4.9420   -8.7426    1.1397 H       1  LIG   0.0535   0.0000 
27    H7       6.5246   -9.4607    0.9644 H       1  LIG   0.0494   0.0000 
28    H8       8.5888   -8.0304    0.9397 H       1  LIG   0.1348   0.1500 
29    H9       9.6204   -5.9713    1.8113 H       1  LIG   0.1492   0.1500 
30    H10      4.6783   -6.3593    1.6113 H       1  LIG   0.1374   0.1500 
31    H11      5.7397   -4.4589    4.7161 H       1  LIG   0.1439   0.1500 
32    H12      3.1457   -1.1201    3.8994 H       1  LIG   0.1377   0.1500 
33    H13      3.4836   -1.4365    1.4869 H       1  LIG   0.1360   0.1500 
34    H14      3.1904   -2.2367    6.1434 H       1  LIG   0.0520   0.0000 
35    H15      4.3143   -3.5313    6.4775 H       1  LIG   0.0578   0.0000 
36    H16      6.2642   -1.8913    6.5007 H       1  LIG   0.1232   0.1500 
37    H17      5.6536    0.2129    7.5014 H       1  LIG   0.1143   0.1500 
38    H18      3.8550   -0.1082    7.1603 H       1  LIG   0.1102   0.1500 
@<TRIPOS>BOND
1     1     2     2
2     1     23    1
3     1     24    1
4     2     3     1
5     2     25    1
6     3     4     1
7     3     26    1
8     3     27    1
9     4     9     ar
10    4     5     ar
11    5     6     ar
12    5     28    1
13    6     7     ar
14    6     29    1
15    7     8     ar
16    7     20    1
17    8     9     ar
18    8     10    1
19    9     30    1
20    10    15    ar
21    10    11    ar
22    11    12    ar
23    11    31    1
24    12    13    ar
25    12    17    1
26    13    14    ar
27    13    32    1
28    14    15    ar
29    14    33    1
30    15    16    1
31    16    21    1
32    17    18    1
33    17    34    1
34    17    35    1
35    18    19    2
36    18    36    1
37    19    37    1
38    19    38    1
39    20    22    1
@<TRIPOS>SUBSTRUCTURE
1   LIG    1    
 
########## Number      : 380
########## Name        : ZINC00001648
########## Description : AM1BCC_CHARGES =   0.0001 ORIGINAL_CHARGES =   0.0000

@<TRIPOS>MOLECULE
ZINC00001648
35    37    1     0     0    
SMALL
USER_CHARGES
****
****
@<TRIPOS>ATOM
1     C1       1.7400   -4.6948   -2.4807 C.3     1  LIG   0.1372   0.2800 
2     O1       1.4929   -4.2508   -1.1424 O.3     1  LIG  -0.4296  -0.4300 
3     C2       2.5673   -3.7150   -0.4897 C.2     1  LIG   0.7525   0.7800 
4     O2       3.6848   -3.6040   -0.9822 O.2     1  LIG  -0.5860  -0.5700 
5     N1       2.1802   -3.3359    0.7767 N.am    1  LIG  -0.4475  -0.4940 
6     C3       3.0264   -2.7590    1.6976 C.2     1  LIG   0.4810   0.2505 
7     N2       4.3539   -2.4951    1.4620 N.pl3   1  LIG  -0.2780   0.0332 
8     C4       4.8879   -1.9249    2.5878 C.ar    1  LIG  -0.0498  -0.1516 
9     C5       6.1724   -1.4750    2.8924 C.ar    1  LIG  -0.1394  -0.1500 
10    C6       6.3654   -0.9375    4.1697 C.ar    1  LIG  -0.0732  -0.1500 
11    C7       5.3087   -0.8500    5.0859 C.ar    1  LIG  -0.1850   0.0862 
12    C8       4.0273   -1.3250    4.7610 C.ar    1  LIG  -0.0356  -0.1500 
13    C9       3.8243   -1.8660    3.4799 C.ar    1  LIG   0.0658   0.2272 
14    N3       2.6840   -2.3869    2.9144 N.2     1  LIG  -0.5905  -0.5653 
15    C10      5.5857   -0.2889    6.4289 C.2     1  LIG   0.5912   0.3976 
16    O3       6.6592   -0.5355    6.9703 O.2     1  LIG  -0.5308  -0.5700 
17    C11      4.5981    0.5622    7.1325 C.ar    1  LIG  -0.1691   0.0862 
18    C12      3.8000    1.4756    6.4350 C.ar    1  LIG  -0.0906  -0.1500 
19    C13      2.8938    2.2770    7.1311 C.ar    1  LIG  -0.1425  -0.1500 
20    C14      2.7903    2.1758    8.5183 C.ar    1  LIG  -0.1056  -0.1500 
21    C15      3.5972    1.2768    9.2151 C.ar    1  LIG  -0.1428  -0.1500 
22    C16      4.5057    0.4727    8.5258 C.ar    1  LIG  -0.0787  -0.1500 
23    H1       1.2186   -3.4836    1.0630 H       1  LIG   0.3722   0.3700 
24    H2       4.8482   -2.6931    0.6022 H       1  LIG   0.3390   0.2700 
25    H3       0.8064   -5.0975   -2.8824 H       1  LIG   0.0720   0.0000 
26    H4       2.0575   -3.8551   -3.1063 H       1  LIG   0.0533   0.0000 
27    H5       2.4938   -5.4879   -2.4840 H       1  LIG   0.0539   0.0000 
28    H6       6.9860   -1.5384    2.1784 H       1  LIG   0.1447   0.1500 
29    H7       7.3573   -0.5786    4.4376 H       1  LIG   0.1532   0.1500 
30    H8       3.2059   -1.2957    5.4691 H       1  LIG   0.1588   0.1500 
31    H9       3.8776    1.5879    5.3571 H       1  LIG   0.1431   0.1500 
32    H10      2.2714    2.9856    6.5918 H       1  LIG   0.1361   0.1500 
33    H11      2.0847    2.8019    9.0571 H       1  LIG   0.1338   0.1500 
34    H12      3.5196    1.2036   10.2962 H       1  LIG   0.1368   0.1500 
35    H13      5.1281   -0.2223    9.0837 H       1  LIG   0.1502   0.1500 
@<TRIPOS>BOND
1     1     2     1
2     1     25    1
3     1     26    1
4     1     27    1
5     2     3     1
6     3     4     2
7     3     5     am
8     5     6     1
9     5     23    1
10    6     14    2
11    6     7     1
12    7     8     1
13    7     24    1
14    8     13    ar
15    8     9     ar
16    9     10    ar
17    9     28    1
18    10    11    ar
19    10    29    1
20    11    12    ar
21    11    15    1
22    12    13    ar
23    12    30    1
24    13    14    1
25    15    16    2
26    15    17    1
27    17    22    ar
28    17    18    ar
29    18    19    ar
30    18    31    1
31    19    20    ar
32    19    32    1
33    20    21    ar
34    20    33    1
35    21    22    ar
36    21    34    1
37    22    35    1
@<TRIPOS>SUBSTRUCTURE
1   LIG    1    
 
########## Number      : 381
########## Name        : ZINC00001649
########## Description : AM1BCC_CHARGES =   0.0002 ORIGINAL_CHARGES =  -0.0000

@<TRIPOS>MOLECULE
ZINC00001649
21    22    1     0     0    
SMALL
USER_CHARGES
****
****
@<TRIPOS>ATOM
1     C1       1.4315   -4.2382   -3.6504 C.3     1  LIG  -0.1459   0.0610 
2     C2       1.4181   -4.8877   -2.2974 C.2     1  LIG   0.6863   0.6253 
3     N1       2.0560   -5.9946   -2.1053 N.2     1  LIG  -0.6493  -0.6290 
4     C3       2.1561   -6.5771   -0.8295 C.ar    1  LIG   0.2643   0.1790 
5     C4       3.0139   -7.6782   -0.6989 C.ar    1  LIG  -0.1312  -0.1500 
6     C5       3.2007   -8.3111    0.5336 C.ar    1  LIG  -0.0607  -0.1500 
7     C6       2.5293   -7.8510    1.6634 C.ar    1  LIG  -0.1589  -0.1500 
8     C7       1.6689   -6.7623    1.5604 C.ar    1  LIG  -0.0088  -0.1500 
9     C8       1.4913   -6.1427    0.3197 C.ar    1  LIG  -0.4354  -0.0090 
10    S1       0.3731   -4.7970    0.2308 S.o2    1  LIG   1.5250   1.4470 
11    O1       0.7974   -3.8181    1.2113 O.2     1  LIG  -0.6493  -0.6500 
12    O2      -0.9625   -5.3576    0.2401 O.2     1  LIG  -0.6438  -0.6500 
13    N2       0.6974   -4.1793   -1.3059 N.pl3   1  LIG  -0.8525  -0.7943 
14    H1       0.4064   -3.2139   -1.4944 H       1  LIG   0.4589   0.4200 
15    H2       1.9341   -4.8772   -4.3813 H       1  LIG   0.0851   0.0000 
16    H3       0.4048   -4.0528   -3.9790 H       1  LIG   0.0635   0.0000 
17    H4       1.9584   -3.2817   -3.5872 H       1  LIG   0.0652   0.0000 
18    H5       3.5527   -8.0503   -1.5680 H       1  LIG   0.1564   0.1500 
19    H6       3.8724   -9.1616    0.6092 H       1  LIG   0.1398   0.1500 
20    H7       2.6745   -8.3426    2.6210 H       1  LIG   0.1444   0.1500 
21    H8       1.1408   -6.4118    2.4430 H       1  LIG   0.1471   0.1500 
@<TRIPOS>BOND
1     1     2     1
2     1     15    1
3     1     16    1
4     1     17    1
5     2     13    1
6     2     3     2
7     3     4     1
8     4     9     ar
9     4     5     ar
10    5     6     ar
11    5     18    1
12    6     7     ar
13    6     19    1
14    7     8     ar
15    7     20    1
16    8     9     ar
17    8     21    1
18    9     10    1
19    10    11    2
20    10    12    2
21    10    13    1
22    13    14    1
@<TRIPOS>SUBSTRUCTURE
1   LIG    1    
 
########## Number      : 382
########## Name        : ZINC00001655
########## Description : AM1BCC_CHARGES =  -0.9998 ORIGINAL_CHARGES =  -1.0000

@<TRIPOS>MOLECULE
ZINC00001655
29    30    1     0     0    
SMALL
USER_CHARGES
****
****
@<TRIPOS>ATOM
1     C1       6.5148   -9.5522    3.2570 C.3     1  LIG  -0.0502   0.1435 
2     C2       6.2389   -8.5259    2.1929 C.ar    1  LIG  -0.0508  -0.1435 
3     C3       6.2985   -8.9107    0.8487 C.ar    1  LIG  -0.1751  -0.1500 
4     C4       6.0584   -7.9878   -0.1664 C.ar    1  LIG  -0.1044  -0.1500 
5     C5       5.7427   -6.6626    0.1455 C.ar    1  LIG  -0.0350   0.1770 
6     C6       5.6542   -6.2374    1.4845 C.ar    1  LIG   0.2246   0.1000 
7     C7       5.9174   -7.1886    2.5001 C.ar    1  LIG  -0.0442   0.1770 
8     Cl1      5.8253   -6.6942    4.1672 Cl      1  LIG  -0.0865  -0.1770 
9     N1       5.2820   -4.9255    1.8479 N.pl3   1  LIG  -0.6498  -0.6000 
10    C8       4.1472   -4.1504    1.5141 C.ar    1  LIG   0.1903   0.1000 
11    C9       3.0303   -4.7296    0.8823 C.ar    1  LIG  -0.2055  -0.1500 
12    C10      1.9307   -3.9599    0.5015 C.ar    1  LIG  -0.1244  -0.1500 
13    C11      1.9274   -2.5921    0.7388 C.ar    1  LIG  -0.1909  -0.1500 
14    C12      3.0220   -1.9946    1.3608 C.ar    1  LIG  -0.0847  -0.1500 
15    C13      4.1399   -2.7544    1.7571 C.ar    1  LIG  -0.1580  -0.1790 
16    C14      5.2920   -2.0435    2.4310 C.2     1  LIG   0.9149   0.9790 
17    O1       5.9770   -2.7067    3.2719 O.co2   1  LIG  -0.8477  -0.9000 
18    Cl2      5.5762   -5.5662   -1.1862 Cl      1  LIG  -0.0809  -0.1770 
19    H1       5.8128   -4.5425    2.6294 H       1  LIG   0.5079   0.4000 
20    H2       6.7542  -10.5285    2.8219 H       1  LIG   0.0308   0.0000 
21    H3       7.3714   -9.2490    3.8675 H       1  LIG   0.0503   0.0000 
22    H4       5.6356   -9.6859    3.8954 H       1  LIG   0.0480   0.0000 
23    H5       6.5443   -9.9351    0.5783 H       1  LIG   0.1244   0.1500 
24    H6       6.1347   -8.3121   -1.2017 H       1  LIG   0.1329   0.1500 
25    H7       2.9949   -5.7989    0.6892 H       1  LIG   0.1171   0.1500 
26    H8       1.0793   -4.4314    0.0195 H       1  LIG   0.1032   0.1500 
27    H9       1.0742   -1.9888    0.4432 H       1  LIG   0.1068   0.1500 
28    H10      2.9945   -0.9220    1.5418 H       1  LIG   0.1493   0.1500 
29    O2       5.4853   -0.8283    2.1130 O.co2   1  LIG  -0.8122  -0.9000 
@<TRIPOS>BOND
1     1     2     1
2     1     20    1
3     1     21    1
4     1     22    1
5     2     7     ar
6     2     3     ar
7     3     4     ar
8     3     23    1
9     4     5     ar
10    4     24    1
11    5     6     ar
12    5     18    1
13    6     7     ar
14    6     9     1
15    7     8     1
16    9     10    1
17    9     19    1
18    10    15    ar
19    10    11    ar
20    11    12    ar
21    11    25    1
22    12    13    ar
23    12    26    1
24    13    14    ar
25    13    27    1
26    14    15    ar
27    14    28    1
28    15    16    1
29    16    17    2
30    16    29    1
@<TRIPOS>SUBSTRUCTURE
1   LIG    1    
 
########## Number      : 383
########## Name        : ZINC00001656
########## Description : AM1BCC_CHARGES =   0.0002 ORIGINAL_CHARGES =   0.0000

@<TRIPOS>MOLECULE
ZINC00001656
30    32    1     0     0    
SMALL
USER_CHARGES
****
****
@<TRIPOS>ATOM
1     C1       6.3960   -5.5964    4.0701 C.3     1  LIG  -0.1417   0.0610 
2     C2       5.5640   -5.9639    2.8593 C.2     1  LIG   0.5140   0.4490 
3     N1       5.2392   -7.2129    2.7281 N.2     1  LIG  -0.6262  -0.6290 
4     C3       4.5143   -7.6026    1.5948 C.ar    1  LIG   0.1873   0.1790 
5     C4       4.1480   -8.9456    1.4557 C.ar    1  LIG  -0.1242  -0.1500 
6     C5       3.4394   -9.3767    0.3326 C.ar    1  LIG  -0.0943  -0.1500 
7     C6       3.0913   -8.4671   -0.6639 C.ar    1  LIG  -0.1549  -0.1500 
8     C7       3.4495   -7.1257   -0.5388 C.ar    1  LIG  -0.0593  -0.1500 
9     C8       4.1593   -6.7005    0.5900 C.ar    1  LIG  -0.1916   0.0862 
10    C9       4.5358   -5.2813    0.7516 C.2     1  LIG   0.7169   0.5438 
11    O1       4.2293   -4.4766   -0.1247 O.2     1  LIG  -0.6074  -0.5700 
12    N2       5.2104   -4.9751    1.9442 N.am    1  LIG  -0.3287  -0.2370 
13    C10      5.5251   -3.6021    2.1712 C.ar    1  LIG   0.0383   0.1170 
14    C11      6.5106   -2.9989    1.3753 C.ar    1  LIG  -0.0992  -0.1500 
15    C12      6.8519   -1.6607    1.5713 C.ar    1  LIG  -0.1252  -0.1500 
16    C13      6.2041   -0.9115    2.5515 C.ar    1  LIG  -0.1124  -0.1500 
17    C14      5.2039   -1.4936    3.3306 C.ar    1  LIG  -0.1235  -0.1500 
18    C15      4.8569   -2.8342    3.1390 C.ar    1  LIG   0.0206   0.1770 
19    Cl1      3.5402   -3.4682    4.0633 Cl      1  LIG  -0.0775  -0.1770 
20    H1       6.9377   -6.4789    4.4260 H       1  LIG   0.0798   0.0000 
21    H2       7.1293   -4.8197    3.8429 H       1  LIG   0.0622   0.0000 
22    H3       5.7419   -5.2572    4.8767 H       1  LIG   0.0716   0.0000 
23    H4       4.4169   -9.6657    2.2249 H       1  LIG   0.1526   0.1500 
24    H5       3.1606  -10.4221    0.2357 H       1  LIG   0.1365   0.1500 
25    H6       2.5398   -8.8030   -1.5376 H       1  LIG   0.1393   0.1500 
26    H7       3.1682   -6.4279   -1.3228 H       1  LIG   0.1586   0.1500 
27    H8       7.0287   -3.5710    0.6091 H       1  LIG   0.1519   0.1500 
28    H9       7.6233   -1.2023    0.9588 H       1  LIG   0.1427   0.1500 
29    H10      6.4697    0.1314    2.7008 H       1  LIG   0.1421   0.1500 
30    H11      4.6926   -0.8871    4.0741 H       1  LIG   0.1519   0.1500 
@<TRIPOS>BOND
1     1     2     1
2     1     20    1
3     1     21    1
4     1     22    1
5     2     12    1
6     2     3     2
7     3     4     1
8     4     9     ar
9     4     5     ar
10    5     6     ar
11    5     23    1
12    6     7     ar
13    6     24    1
14    7     8     ar
15    7     25    1
16    8     9     ar
17    8     26    1
18    9     10    1
19    10    11    2
20    10    12    am
21    12    13    1
22    13    18    ar
23    13    14    ar
24    14    15    ar
25    14    27    1
26    15    16    ar
27    15    28    1
28    16    17    ar
29    16    29    1
30    17    18    ar
31    17    30    1
32    18    19    1
@<TRIPOS>SUBSTRUCTURE
1   LIG    1    
 
########## Number      : 384
########## Name        : ZINC00001658
########## Description : AM1BCC_CHARGES =  -0.0003 ORIGINAL_CHARGES =   0.0000

@<TRIPOS>MOLECULE
ZINC00001658
28    29    1     0     0    
SMALL
USER_CHARGES
****
****
@<TRIPOS>ATOM
1     C1       2.6807   -2.0611    1.2429 C.ar    1  LIG  -0.2219  -0.1500 
2     C2       2.3976   -3.4119    1.4631 C.ar    1  LIG  -0.0162  -0.1500 
3     C3       1.8257   -4.1853    0.4488 C.ar    1  LIG  -0.1798   0.0640 
4     C4       1.5249   -3.5896   -0.7791 C.ar    1  LIG  -0.0046  -0.1500 
5     C5       1.8106   -2.2382   -0.9931 C.ar    1  LIG  -0.2193  -0.1500 
6     C6       2.4016   -1.4622    0.0098 C.ar    1  LIG   0.1923   0.1000 
7     N1       2.6595   -0.1159   -0.1971 N.pl3   1  LIG  -0.8362  -0.9000 
8     S1       1.4622   -5.9280    0.7671 S.o     1  LIG   0.3859   0.3720 
9     O1       0.4906   -6.3420   -0.2990 O.2     1  LIG  -0.5251  -0.5000 
10    C7       3.0837   -6.4907    0.1975 C.ar    1  LIG  -0.1794   0.0640 
11    C8       4.1321   -6.5908    1.1165 C.ar    1  LIG  -0.0166  -0.1500 
12    C9       5.3922   -7.0302    0.7011 C.ar    1  LIG  -0.2207  -0.1500 
13    C10      5.6270   -7.3733   -0.6346 C.ar    1  LIG   0.1906   0.1000 
14    C11      4.5670   -7.2897   -1.5438 C.ar    1  LIG  -0.2191  -0.1500 
15    C12      3.3045   -6.8510   -1.1346 C.ar    1  LIG  -0.0046  -0.1500 
16    N2       6.8707   -7.8336   -1.0385 N.pl3   1  LIG  -0.8344  -0.9000 
17    H1       2.5023    0.2999   -1.1055 H       1  LIG   0.4035   0.4000 
18    H2       3.1322    0.4283    0.5122 H       1  LIG   0.4020   0.4000 
19    H3       7.6464   -7.8447   -0.3897 H       1  LIG   0.4014   0.4000 
20    H4       7.0490   -8.0326   -2.0138 H       1  LIG   0.4026   0.4000 
21    H5       3.1235   -1.4778    2.0469 H       1  LIG   0.1317   0.1500 
22    H6       2.6273   -3.8464    2.4328 H       1  LIG   0.1222   0.1500 
23    H7       1.0696   -4.1625   -1.5827 H       1  LIG   0.1608   0.1500 
24    H8       1.5668   -1.7949   -1.9559 H       1  LIG   0.1350   0.1500 
25    H9       3.9835   -6.3317    2.1618 H       1  LIG   0.1223   0.1500 
26    H10      6.1927   -7.1026    1.4337 H       1  LIG   0.1317   0.1500 
27    H11      4.7160   -7.5663   -2.5851 H       1  LIG   0.1350   0.1500 
28    H12      2.5058   -6.7946   -1.8696 H       1  LIG   0.1606   0.1500 
@<TRIPOS>BOND
1     1     6     ar
2     1     2     ar
3     1     21    1
4     2     3     ar
5     2     22    1
6     3     4     ar
7     3     8     1
8     4     5     ar
9     4     23    1
10    5     6     ar
11    5     24    1
12    6     7     1
13    7     17    1
14    7     18    1
15    8     9     2
16    8     10    1
17    10    15    ar
18    10    11    ar
19    11    12    ar
20    11    25    1
21    12    13    ar
22    12    26    1
23    13    14    ar
24    13    16    1
25    14    15    ar
26    14    27    1
27    15    28    1
28    16    19    1
29    16    20    1
@<TRIPOS>SUBSTRUCTURE
1   LIG    1    
 
########## Number      : 385
########## Name        : ZINC00001659
########## Description : AM1BCC_CHARGES =   0.0002 ORIGINAL_CHARGES =   0.0000

@<TRIPOS>MOLECULE
ZINC00001659
34    36    1     0     0    
SMALL
USER_CHARGES
****
****
@<TRIPOS>ATOM
1     C1       4.5720   -7.4892   -1.3318 C.3     1  LIG   0.1729   0.3691 
2     N1       4.2940   -7.1165    0.0509 N.pl3   1  LIG  -0.6467  -0.8382 
3     C2       4.1460   -8.2288    1.0006 C.3     1  LIG   0.1831   0.3691 
4     C3       3.8065   -7.8287    2.4306 C.3     1  LIG   0.0988   0.2460 
5     N2       4.8675   -6.9928    2.9816 N.2     1  LIG  -0.5810  -0.6960 
6     C4       4.9576   -5.7761    2.5553 C.2     1  LIG   0.5395   0.2776 
7     C5       4.0359   -5.1849    1.5399 C.ar    1  LIG  -0.1953   0.0862 
8     C6       3.7647   -5.8607    0.3294 C.ar    1  LIG   0.1548   0.1000 
9     C7       2.9431   -5.1887   -0.5976 C.ar    1  LIG  -0.1769  -0.1500 
10    C8       2.3916   -3.9320   -0.3268 C.ar    1  LIG  -0.0922  -0.1500 
11    C9       2.6541   -3.3108    0.8874 C.ar    1  LIG  -0.0140   0.1770 
12    C10      3.4732   -3.9289    1.8254 C.ar    1  LIG  -0.0794  -0.1500 
13    Cl1      1.9689   -1.7695    1.2289 Cl      1  LIG  -0.0919  -0.1770 
14    C11      6.0538   -4.9282    3.1101 C.ar    1  LIG  -0.1395   0.0862 
15    C12      6.7350   -4.0143    2.2969 C.ar    1  LIG  -0.1043  -0.1500 
16    C13      7.7653   -3.2404    2.8333 C.ar    1  LIG  -0.1387  -0.1500 
17    C14      8.1221   -3.3808    4.1740 C.ar    1  LIG  -0.1173  -0.1500 
18    C15      7.4529   -4.2994    4.9819 C.ar    1  LIG  -0.1416  -0.1500 
19    C16      6.4221   -5.0771    4.4525 C.ar    1  LIG  -0.0893  -0.1500 
20    H1       5.2572   -8.3436   -1.3675 H       1  LIG   0.0521   0.0000 
21    H2       3.6529   -7.7777   -1.8530 H       1  LIG   0.0115   0.0000 
22    H3       5.0558   -6.6707   -1.8767 H       1  LIG   0.0549   0.0000 
23    H4       3.3557   -8.8966    0.6353 H       1  LIG   0.0242   0.0000 
24    H5       5.0782   -8.8078    1.0021 H       1  LIG   0.0632   0.0000 
25    H6       2.8234   -7.3474    2.5070 H       1  LIG   0.0469   0.0000 
26    H7       3.7395   -8.7355    3.0430 H       1  LIG   0.0720   0.0000 
27    H8       2.6941   -5.6485   -1.5516 H       1  LIG   0.1402   0.1500 
28    H9       1.7551   -3.4592   -1.0702 H       1  LIG   0.1476   0.1500 
29    H10      3.6745   -3.4368    2.7741 H       1  LIG   0.1585   0.1500 
30    H11      6.4891   -3.9006    1.2447 H       1  LIG   0.1422   0.1500 
31    H12      8.2940   -2.5305    2.2033 H       1  LIG   0.1334   0.1500 
32    H13      8.9251   -2.7777    4.5881 H       1  LIG   0.1316   0.1500 
33    H14      7.7348   -4.4107    6.0251 H       1  LIG   0.1332   0.1500 
34    H15      5.9104   -5.7856    5.0985 H       1  LIG   0.1477   0.1500 
@<TRIPOS>BOND
1     1     2     1
2     1     20    1
3     1     21    1
4     1     22    1
5     2     8     1
6     2     3     1
7     3     4     1
8     3     23    1
9     3     24    1
10    4     5     1
11    4     25    1
12    4     26    1
13    5     6     2
14    6     7     1
15    6     14    1
16    7     12    ar
17    7     8     ar
18    8     9     ar
19    9     10    ar
20    9     27    1
21    10    11    ar
22    10    28    1
23    11    12    ar
24    11    13    1
25    12    29    1
26    14    19    ar
27    14    15    ar
28    15    16    ar
29    15    30    1
30    16    17    ar
31    16    31    1
32    17    18    ar
33    17    32    1
34    18    19    ar
35    18    33    1
36    19    34    1
@<TRIPOS>SUBSTRUCTURE
1   LIG    1    
 
########## Number      : 386
########## Name        : ZINC00001661
########## Description : AM1BCC_CHARGES =   0.0001 ORIGINAL_CHARGES =  -0.0000

@<TRIPOS>MOLECULE
ZINC00001661
37    37    1     0     0    
SMALL
USER_CHARGES
****
****
@<TRIPOS>ATOM
1     C1       3.6490   -6.3486    2.3897 C.ar    1  LIG  -0.0542  -0.1500 
2     C2       4.4580   -5.4752    3.1311 C.ar    1  LIG  -0.1816  -0.1500 
3     C3       5.5265   -4.7593    2.5561 C.ar    1  LIG   0.1753   0.1000 
4     C4       5.7256   -4.9761    1.1783 C.ar    1  LIG  -0.1974  -0.1500 
5     C5       4.9221   -5.8468    0.4279 C.ar    1  LIG  -0.0883  -0.1500 
6     C6       3.8758   -6.5446    1.0288 C.ar    1  LIG  -0.1242  -0.1435 
7     C7       3.0009   -7.4722    0.2221 C.3     1  LIG  -0.0232   0.1435 
8     C8       1.9267   -6.7323   -0.5952 C.3     1  LIG  -0.0720   0.3970 
9     C9       0.8739   -6.1386    0.3604 C.2     1  LIG   0.9312   0.9060 
10    O1       0.1589   -6.9876    0.9651 O.co2   1  LIG  -0.8084  -0.9000 
11    N1       6.3273   -3.8896    3.2997 N.pl3   1  LIG  -0.6677  -0.8382 
12    C10      7.2965   -2.9926    2.6494 C.3     1  LIG   0.1977   0.3691 
13    C11      8.6555   -3.6652    2.4918 C.3     1  LIG  -0.0073   0.2900 
14    Cl1      9.7812   -2.5932    1.6258 Cl      1  LIG  -0.1831  -0.2900 
15    C12      6.2525   -3.8308    4.7693 C.3     1  LIG   0.1974   0.3691 
16    C13      6.9176   -5.0434    5.4149 C.3     1  LIG  -0.0047   0.2900 
17    Cl2      6.8250   -4.9285    7.1888 Cl      1  LIG  -0.1810  -0.2900 
18    H1       0.5999   -7.2458   -2.1244 H       1  LIG   0.4340   0.4500 
19    H2       1.9932   -8.1483   -2.1525 H       1  LIG   0.4123   0.4500 
20    H3       2.8356   -6.8666    2.8928 H       1  LIG   0.1507   0.1500 
21    H4       4.2105   -5.3700    4.1841 H       1  LIG   0.1408   0.1500 
22    H5       6.5264   -4.4775    0.6386 H       1  LIG   0.1321   0.1500 
23    H6       5.1286   -5.9710   -0.6326 H       1  LIG   0.1187   0.1500 
24    H7       3.6514   -8.0481   -0.4505 H       1  LIG   0.0217   0.0000 
25    H8       2.5432   -8.2149    0.8893 H       1  LIG   0.0739   0.0000 
26    H9       2.4082   -5.9312   -1.1811 H       1  LIG   0.0966   0.0000 
27    H10      6.9127   -2.6279    1.6888 H       1  LIG   0.0755   0.0000 
28    H11      7.4172   -2.0842    3.2544 H       1  LIG   0.0667   0.0000 
29    H12      9.1011   -3.8878    3.4654 H       1  LIG   0.0663   0.0000 
30    H13      8.5894   -4.6003    1.9290 H       1  LIG   0.0722   0.0000 
31    H14      6.7604   -2.9262    5.1286 H       1  LIG   0.0669   0.0000 
32    H15      5.2136   -3.7153    5.1005 H       1  LIG   0.0736   0.0000 
33    H16      6.4397   -5.9824    5.1238 H       1  LIG   0.0780   0.0000 
34    H17      7.9751   -5.1080    5.1446 H       1  LIG   0.0634   0.0000 
35    O2       0.8396   -4.8772    0.3961 O.co2   1  LIG  -0.6999  -0.9000 
36    N2       1.3024   -7.7078   -1.5319 N.4     1  LIG  -0.8332  -0.8530 
37    H18      0.8159   -8.4514   -1.0115 H       1  LIG   0.4813   0.4500 
@<TRIPOS>BOND
1     1     6     ar
2     1     2     ar
3     1     20    1
4     2     3     ar
5     2     21    1
6     3     4     ar
7     3     11    1
8     4     5     ar
9     4     22    1
10    5     6     ar
11    5     23    1
12    6     7     1
13    7     8     1
14    7     24    1
15    7     25    1
16    8     9     1
17    8     26    1
18    8     36    1
19    9     10    2
20    9     35    1
21    11    12    1
22    11    15    1
23    12    13    1
24    12    27    1
25    12    28    1
26    13    14    1
27    13    29    1
28    13    30    1
29    15    16    1
30    15    31    1
31    15    32    1
32    16    17    1
33    16    33    1
34    16    34    1
35    18    36    1
36    19    36    1
37    36    37    1
@<TRIPOS>SUBSTRUCTURE
1   LIG    1    
 
########## Number      : 387
########## Name        : ZINC00001664
########## Description : AM1BCC_CHARGES =  -0.0001 ORIGINAL_CHARGES =  -0.0000

@<TRIPOS>MOLECULE
ZINC00001664
57    60    1     0     0    
SMALL
USER_CHARGES
****
****
@<TRIPOS>ATOM
1     C1       7.0340  -10.8096    1.2508 C.3     1  LIG  -0.0869   0.0000 
2     C2       5.5796  -10.3937    1.5071 C.3     1  LIG  -0.0373   0.1382 
3     C3       5.2883   -8.9673    1.1116 C.3     1  LIG  -0.0714   0.0000 
4     C4       5.9304   -7.8816    2.0007 C.3     1  LIG  -0.0370   0.0000 
5     C5       5.6461   -8.0511    3.5324 C.3     1  LIG  -0.0463   0.0000 
6     C6       4.3694   -7.2490    3.9029 C.3     1  LIG  -0.0749   0.0000 
7     C7       4.5999   -5.7244    3.7170 C.3     1  LIG  -0.0669   0.0000 
8     C8       5.4881   -5.3818    2.4946 C.3     1  LIG  -0.0147   0.0000 
9     C9       5.3924   -6.5228    1.4865 C.3     1  LIG  -0.0803   0.0000 
10    C10      6.0329   -5.9379    0.2235 C.3     1  LIG  -0.0684   0.0000 
11    C11      5.6743   -4.4285    0.2742 C.3     1  LIG  -0.1034   0.0000 
12    C12      5.0237   -4.1623    1.6608 C.3     1  LIG   0.0551   0.3410 
13    C13      3.4962   -3.9993    1.4477 C.2     1  LIG   0.5525   0.4480 
14    O1       2.7210   -4.9560    1.4052 O.2     1  LIG  -0.5234  -0.5700 
15    C14      2.9677   -2.6046    1.2073 C.3     1  LIG  -0.2091   0.0610 
16    O2       5.5175   -2.9600    2.2425 O.3     1  LIG  -0.5827  -0.6800 
17    C15      6.9500   -5.1396    2.9931 C.3     1  LIG  -0.0793   0.0000 
18    C16      5.6465   -9.5736    4.0213 C.3     1  LIG  -0.0089   0.1382 
19    C17      5.1901  -10.5842    2.9530 C.2     1  LIG  -0.0151  -0.2764 
20    C18      4.4774  -11.6894    3.2519 C.2     1  LIG  -0.2706  -0.1356 
21    C19      4.1470  -12.0731    4.6446 C.2     1  LIG   0.5693   0.4946 
22    O3       3.5214  -13.1087    4.8614 O.2     1  LIG  -0.5383  -0.5700 
23    C20      4.6595  -11.2057    5.7606 C.3     1  LIG  -0.1839   0.0610 
24    C21      4.7487   -9.7645    5.2828 C.3     1  LIG  -0.0704   0.0000 
25    C22      7.1073   -9.9188    4.4242 C.3     1  LIG  -0.0899   0.0000 
26    H1       5.5769   -2.2825    1.5477 H       1  LIG   0.4006   0.4000 
27    H2       7.2204  -10.8556    0.1714 H       1  LIG   0.0369   0.0000 
28    H3       7.7633  -10.1092    1.6609 H       1  LIG   0.0382   0.0000 
29    H4       7.2423  -11.8036    1.6616 H       1  LIG   0.0406   0.0000 
30    H5       4.9924  -11.0547    0.8457 H       1  LIG   0.0570   0.0000 
31    H6       5.6049   -8.8143    0.0714 H       1  LIG   0.0444   0.0000 
32    H7       4.1961   -8.8411    1.1130 H       1  LIG   0.0530   0.0000 
33    H8       7.0210   -7.9686    1.8651 H       1  LIG   0.0486   0.0000 
34    H9       6.4186   -7.5318    4.1260 H       1  LIG   0.0481   0.0000 
35    H10      3.5184   -7.5825    3.2972 H       1  LIG   0.0548   0.0000 
36    H11      4.0898   -7.3761    4.9524 H       1  LIG   0.0430   0.0000 
37    H12      3.6198   -5.2408    3.6797 H       1  LIG   0.0529   0.0000 
38    H13      5.0629   -5.3319    4.6321 H       1  LIG   0.0443   0.0000 
39    H14      4.3446   -6.7152    1.1955 H       1  LIG   0.0796   0.0000 
40    H15      7.1209   -6.0671    0.2288 H       1  LIG   0.0465   0.0000 
41    H16      5.6472   -6.4064   -0.6877 H       1  LIG   0.0486   0.0000 
42    H17      6.5787   -3.8268    0.1262 H       1  LIG   0.0557   0.0000 
43    H18      4.9940   -4.1855   -0.5504 H       1  LIG   0.0482   0.0000 
44    H19      1.9016   -2.6539    0.9669 H       1  LIG   0.0718   0.0000 
45    H20      3.0916   -1.9992    2.1083 H       1  LIG   0.0769   0.0000 
46    H21      3.4916   -2.1492    0.3635 H       1  LIG   0.0546   0.0000 
47    H22      6.9689   -4.3952    3.7979 H       1  LIG   0.0515   0.0000 
48    H23      7.4491   -6.0308    3.3718 H       1  LIG   0.0357   0.0000 
49    H24      7.5945   -4.7546    2.1950 H       1  LIG   0.0337   0.0000 
50    H25      4.1659  -12.3938    2.4868 H       1  LIG   0.1471   0.1500 
51    H26      3.9535  -11.2634    6.5965 H       1  LIG   0.0730   0.0000 
52    H27      5.6249  -11.5915    6.1009 H       1  LIG   0.0705   0.0000 
53    H28      5.1106   -9.1368    6.1066 H       1  LIG   0.0502   0.0000 
54    H29      3.7210   -9.4486    5.0597 H       1  LIG   0.0560   0.0000 
55    H30      7.3668   -9.4508    5.3814 H       1  LIG   0.0385   0.0000 
56    H31      7.2684  -10.9974    4.5303 H       1  LIG   0.0413   0.0000 
57    H32      7.8338   -9.5473    3.6967 H       1  LIG   0.0403   0.0000 
@<TRIPOS>BOND
1     1     2     1
2     1     27    1
3     1     28    1
4     1     29    1
5     2     19    1
6     2     3     1
7     2     30    1
8     3     4     1
9     3     31    1
10    3     32    1
11    4     9     1
12    4     5     1
13    4     33    1
14    5     6     1
15    5     18    1
16    5     34    1
17    6     7     1
18    6     35    1
19    6     36    1
20    7     8     1
21    7     37    1
22    7     38    1
23    8     12    1
24    8     9     1
25    8     17    1
26    9     10    1
27    9     39    1
28    10    11    1
29    10    40    1
30    10    41    1
31    11    12    1
32    11    42    1
33    11    43    1
34    12    13    1
35    12    16    1
36    13    14    2
37    13    15    1
38    15    44    1
39    15    45    1
40    15    46    1
41    16    26    1
42    17    47    1
43    17    48    1
44    17    49    1
45    18    24    1
46    18    19    1
47    18    25    1
48    19    20    2
49    20    21    1
50    20    50    1
51    21    22    2
52    21    23    1
53    23    24    1
54    23    51    1
55    23    52    1
56    24    53    1
57    24    54    1
58    25    55    1
59    25    56    1
60    25    57    1
@<TRIPOS>SUBSTRUCTURE
1   LIG    1    
 
########## Number      : 388
########## Name        : ZINC00001669
########## Description : AM1BCC_CHARGES =  -2.0000 ORIGINAL_CHARGES =  -2.0000

@<TRIPOS>MOLECULE
ZINC00001669
19    18    1     0     0    
SMALL
USER_CHARGES
****
****
@<TRIPOS>ATOM
1     C1       2.6662   -5.3286    0.5203 C.3     1  LIG  -0.0810   0.0000 
2     C2       3.5118   -6.0387   -0.5514 C.3     1  LIG   0.1966   0.2800 
3     C3       3.1477   -7.5323   -0.5387 C.3     1  LIG  -0.2066  -0.1060 
4     C4       3.9534   -8.4818   -1.4292 C.2     1  LIG   0.9098   0.9060 
5     O1       5.2036   -8.4622   -1.2526 O.co2   1  LIG  -0.8388  -0.9000 
6     C5       3.2574   -5.3475   -1.9011 C.3     1  LIG  -0.2087  -0.1060 
7     C6       4.0933   -5.7724   -3.1118 C.2     1  LIG   0.9103   0.9060 
8     O2       5.3434   -5.7815   -2.9346 O.co2   1  LIG  -0.8486  -0.9000 
9     O3       4.8680   -5.8546   -0.1461 O.3     1  LIG  -0.6246  -0.6800 
10    H1       5.4278   -6.2916   -0.8160 H       1  LIG   0.4585   0.4000 
11    H2       2.9305   -4.2667    0.5875 H       1  LIG   0.0328   0.0000 
12    H3       1.5946   -5.4061    0.3084 H       1  LIG  -0.0014   0.0000 
13    H4       2.8551   -5.7534    1.5132 H       1  LIG   0.0074   0.0000 
14    H5       3.2819   -7.9249    0.4793 H       1  LIG   0.0077   0.0000 
15    H6       2.0817   -7.6475   -0.7765 H       1  LIG   0.0179   0.0000 
16    H7       2.1941   -5.4409   -2.1594 H       1  LIG   0.0518   0.0000 
17    H8       3.4571   -4.2718   -1.7940 H       1  LIG   0.0109   0.0000 
18    O4       3.2603   -9.2012   -2.2031 O.co2   1  LIG  -0.8966  -0.9000 
19    O5       3.4265   -6.0203   -4.1564 O.co2   1  LIG  -0.8974  -0.9000 
@<TRIPOS>BOND
1     1     2     1
2     1     11    1
3     1     12    1
4     1     13    1
5     2     3     1
6     2     6     1
7     2     9     1
8     3     4     1
9     3     14    1
10    3     15    1
11    4     5     2
12    4     18    1
13    6     7     1
14    6     16    1
15    6     17    1
16    7     8     2
17    7     19    1
18    9     10    1
@<TRIPOS>SUBSTRUCTURE
1   LIG    1    
 
########## Number      : 389
########## Name        : ZINC00001670
########## Description : AM1BCC_CHARGES =   0.0001 ORIGINAL_CHARGES =  -0.0000

@<TRIPOS>MOLECULE
ZINC00001670
41    41    1     0     0    
SMALL
USER_CHARGES
****
****
@<TRIPOS>ATOM
1     C1       6.3953   -6.1212   -0.5689 C.3     1  LIG  -0.1035   0.0000 
2     C2       5.5086   -6.8491    0.4289 C.3     1  LIG   0.1848   0.3691 
3     N1       4.1007   -6.4858    0.2306 N.pl3   1  LIG  -0.7219  -0.7882 
4     C3       3.3312   -7.4116   -0.6152 C.3     1  LIG   0.2077   0.3691 
5     C4       2.6371   -8.4618    0.2377 C.3     1  LIG  -0.1274   0.0000 
6     C5       3.4784   -5.3690    0.7956 C.2     1  LIG   0.8006   0.5500 
7     N2       4.2594   -4.5060    1.5355 N.pl3   1  LIG  -0.8556  -0.5000 
8     C6       3.7596   -3.3776    2.1507 C.2     1  LIG   0.8244   0.5500 
9     N3       2.4848   -3.0898    2.0280 N.2     1  LIG  -0.7968  -0.6610 
10    C7       1.7193   -3.9719    1.2725 C.2     1  LIG   0.7368   0.8720 
11    N4       0.4462   -3.7530    1.0974 N.2     1  LIG  -0.4564  -0.5030 
12    N5      -0.0558   -2.6536    1.7016 N.pl3   1  LIG  -0.5767  -0.6670 
13    N6       2.1987   -5.1144    0.6509 N.2     1  LIG  -0.7182  -0.6610 
14    N7       4.6500   -2.5877    2.8832 N.pl3   1  LIG  -0.7264  -0.7882 
15    C8       6.0628   -2.9118    3.1115 C.3     1  LIG   0.1861   0.3691 
16    C9       6.9190   -2.4186    1.9559 C.3     1  LIG  -0.1042   0.0000 
17    C10      4.1863   -1.3418    3.5135 C.3     1  LIG   0.2107   0.3691 
18    C11      3.5926   -1.6258    4.8841 C.3     1  LIG  -0.1284   0.0000 
19    H1       5.2518   -4.6792    1.5841 H       1  LIG   0.4475   0.4000 
20    H2      -0.8513   -2.3027    1.1727 H       1  LIG   0.3832   0.3600 
21    H3       0.6433   -1.9141    1.7668 H       1  LIG   0.3584   0.3600 
22    H4       7.4430   -6.3989   -0.4176 H       1  LIG   0.0408   0.0000 
23    H5       6.1206   -6.3774   -1.5976 H       1  LIG   0.0514   0.0000 
24    H6       6.3130   -5.0351   -0.4649 H       1  LIG   0.0292   0.0000 
25    H7       5.6434   -7.9303    0.3009 H       1  LIG   0.0540   0.0000 
26    H8       5.8275   -6.6390    1.4557 H       1  LIG   0.0457   0.0000 
27    H9       2.5919   -6.8638   -1.2110 H       1  LIG   0.0857   0.0000 
28    H10      3.9911   -7.9065   -1.3381 H       1  LIG   0.0435   0.0000 
29    H11      2.0734   -9.1530   -0.3965 H       1  LIG   0.0452   0.0000 
30    H12      3.3627   -9.0437    0.8154 H       1  LIG   0.0257   0.0000 
31    H13      1.9389   -8.0029    0.9450 H       1  LIG   0.0673   0.0000 
32    H14      6.4147   -2.4436    4.0392 H       1  LIG   0.0538   0.0000 
33    H15      6.1994   -3.9882    3.2626 H       1  LIG   0.0471   0.0000 
34    H16      7.9713   -2.6607    2.1338 H       1  LIG   0.0418   0.0000 
35    H17      6.6203   -2.8765    1.0081 H       1  LIG   0.0315   0.0000 
36    H18      6.8344   -1.3329    1.8405 H       1  LIG   0.0507   0.0000 
37    H19      5.0169   -0.6330    3.6152 H       1  LIG   0.0453   0.0000 
38    H20      3.4437   -0.8438    2.8791 H       1  LIG   0.0774   0.0000 
39    H21      3.2580   -0.6950    5.3525 H       1  LIG   0.0445   0.0000 
40    H22      2.7325   -2.2994    4.8142 H       1  LIG   0.0657   0.0000 
41    H23      4.3301   -2.0940    5.5443 H       1  LIG   0.0291   0.0000 
@<TRIPOS>BOND
1     1     2     1
2     1     22    1
3     1     23    1
4     1     24    1
5     2     3     1
6     2     25    1
7     2     26    1
8     3     4     1
9     3     6     1
10    4     5     1
11    4     27    1
12    4     28    1
13    5     29    1
14    5     30    1
15    5     31    1
16    6     13    2
17    6     7     1
18    7     8     1
19    7     19    1
20    8     9     2
21    8     14    1
22    9     10    1
23    10    11    2
24    10    13    1
25    11    12    1
26    12    20    1
27    12    21    1
28    14    15    1
29    14    17    1
30    15    16    1
31    15    32    1
32    15    33    1
33    16    34    1
34    16    35    1
35    16    36    1
36    17    18    1
37    17    37    1
38    17    38    1
39    18    39    1
40    18    40    1
41    18    41    1
@<TRIPOS>SUBSTRUCTURE
1   LIG    1    
 
########## Number      : 390
########## Name        : ZINC00001673
########## Description : AM1BCC_CHARGES =  -0.0000 ORIGINAL_CHARGES =  -0.0000

@<TRIPOS>MOLECULE
ZINC00001673
37    37    1     0     0    
SMALL
USER_CHARGES
****
****
@<TRIPOS>ATOM
1     C1       4.1261   -6.7867    1.9194 C.ar    1  LIG  -0.0742  -0.1500 
2     C2       5.3803   -6.3062    2.3151 C.ar    1  LIG  -0.1311  -0.1500 
3     C3       5.6187   -4.9360    2.5248 C.ar    1  LIG   0.1261   0.1000 
4     C4       4.5334   -4.0680    2.3071 C.ar    1  LIG  -0.1737  -0.1500 
5     C5       3.2763   -4.5421    1.9124 C.ar    1  LIG  -0.1085  -0.1500 
6     C6       3.0603   -5.9079    1.7179 C.ar    1  LIG  -0.0973  -0.1435 
7     C7       1.7095   -6.4192    1.2792 C.3     1  LIG  -0.0284   0.1435 
8     C8       1.4563   -6.2432   -0.2288 C.3     1  LIG  -0.0739   0.3970 
9     C9       2.3718   -7.1994   -1.0174 C.2     1  LIG   0.9310   0.9060 
10    O1       2.1080   -8.4282   -0.8819 O.co2   1  LIG  -0.8085  -0.9000 
11    N1       6.8822   -4.4729    2.9224 N.pl3   1  LIG  -0.6459  -0.8382 
12    C10      7.2599   -3.0864    2.5990 C.3     1  LIG   0.1756   0.3691 
13    C11      8.7684   -2.9052    2.4574 C.3     1  LIG   0.0294   0.2900 
14    Cl1      9.1440   -1.2725    1.8512 Cl      1  LIG  -0.1898  -0.2900 
15    C12      7.5268   -5.1564    4.0568 C.3     1  LIG   0.1790   0.3691 
16    C13      6.9505   -4.6763    5.3860 C.3     1  LIG  -0.0059   0.2900 
17    Cl2      7.7554   -5.4956    6.7449 Cl      1  LIG  -0.1835  -0.2900 
18    H1      -0.2001   -6.4018   -1.4912 H       1  LIG   0.4361   0.4500 
19    H2      -0.1929   -7.5239   -0.2749 H       1  LIG   0.4811   0.4500 
20    H3       3.9973   -7.8548    1.7602 H       1  LIG   0.1548   0.1500 
21    H4       6.1827   -7.0318    2.4262 H       1  LIG   0.1462   0.1500 
22    H5       4.6366   -2.9966    2.4628 H       1  LIG   0.1319   0.1500 
23    H6       2.4679   -3.8306    1.7621 H       1  LIG   0.1197   0.1500 
24    H7       1.6040   -7.4719    1.5740 H       1  LIG   0.0770   0.0000 
25    H8       0.9432   -5.8791    1.8523 H       1  LIG   0.0226   0.0000 
26    H9       1.6627   -5.1965   -0.5090 H       1  LIG   0.0974   0.0000 
27    H10      6.8092   -2.7999    1.6395 H       1  LIG   0.0772   0.0000 
28    H11      6.8673   -2.4056    3.3643 H       1  LIG   0.0269   0.0000 
29    H12      9.2811   -3.0087    3.4173 H       1  LIG   0.0654   0.0000 
30    H13      9.1923   -3.6289    1.7544 H       1  LIG   0.0846   0.0000 
31    H14      7.4303   -6.2451    3.9804 H       1  LIG   0.0740   0.0000 
32    H15      8.6070   -4.9774    4.0368 H       1  LIG   0.0646   0.0000 
33    H16      7.0948   -3.5999    5.5185 H       1  LIG   0.0654   0.0000 
34    H17      5.8796   -4.8890    5.4592 H       1  LIG   0.0724   0.0000 
35    O2       3.2518   -6.6320   -1.7226 O.co2   1  LIG  -0.6988  -0.9000 
36    N2       0.0217   -6.5414   -0.4966 N.4     1  LIG  -0.8314  -0.8530 
37    H18     -0.6090   -5.9427    0.0511 H       1  LIG   0.4125   0.4500 
@<TRIPOS>BOND
1     1     6     ar
2     1     2     ar
3     1     20    1
4     2     3     ar
5     2     21    1
6     3     4     ar
7     3     11    1
8     4     5     ar
9     4     22    1
10    5     6     ar
11    5     23    1
12    6     7     1
13    7     8     1
14    7     24    1
15    7     25    1
16    8     9     1
17    8     26    1
18    8     36    1
19    9     10    2
20    9     35    1
21    11    12    1
22    11    15    1
23    12    13    1
24    12    27    1
25    12    28    1
26    13    14    1
27    13    29    1
28    13    30    1
29    15    16    1
30    15    31    1
31    15    32    1
32    16    17    1
33    16    33    1
34    16    34    1
35    18    36    1
36    19    36    1
37    36    37    1
@<TRIPOS>SUBSTRUCTURE
1   LIG    1    
 
########## Number      : 391
########## Name        : ZINC00001674
########## Description : AM1BCC_CHARGES =  -0.0001 ORIGINAL_CHARGES =   0.0000

@<TRIPOS>MOLECULE
ZINC00001674
37    39    1     0     0    
SMALL
USER_CHARGES
****
****
@<TRIPOS>ATOM
1     C1       6.7877  -10.4511   -1.1362 C.3     1  LIG   0.1134   0.2800 
2     O1       6.7729  -10.0420    0.2264 O.3     1  LIG  -0.3273  -0.3625 
3     C2       6.2730   -8.7945    0.4910 C.ar    1  LIG   0.1101   0.0825 
4     C3       5.7694   -7.8977   -0.4555 C.ar    1  LIG  -0.1870  -0.1500 
5     C4       5.2862   -6.6495   -0.0528 C.ar    1  LIG  -0.1015  -0.1500 
6     C5       5.3191   -6.2896    1.2938 C.ar    1  LIG   0.0659   0.0825 
7     C6       5.7999   -7.1861    2.2487 C.ar    1  LIG  -0.1340  -0.1500 
8     C7       6.2815   -8.4316    1.8431 C.ar    1  LIG  -0.1387  -0.1500 
9     O2       4.7971   -5.0662    1.6375 O.3     1  LIG  -0.2526  -0.1592 
10    C8       5.5967   -4.2250    2.3850 C.2     1  LIG  -0.0737  -0.0733 
11    C9       5.1299   -3.0840    2.9232 C.2     1  LIG   0.0997   0.0716 
12    N1       3.8214   -2.6669    2.7540 N.pl3   1  LIG  -0.7140  -0.8691 
13    C10      3.2519   -1.4753    3.3421 C.3     1  LIG   0.1889   0.3691 
14    C11      4.2821   -0.3508    3.3168 C.3     1  LIG  -0.0414   0.1435 
15    C12      5.5921   -0.8260    3.9019 C.ar    1  LIG  -0.0655  -0.1435 
16    C13      6.0110   -2.1635    3.7034 C.ar    1  LIG  -0.0374   0.0284 
17    C14      7.2283   -2.5681    4.2764 C.ar    1  LIG  -0.1212  -0.1500 
18    C15      8.0226   -1.6657    4.9898 C.ar    1  LIG  -0.1320  -0.1500 
19    C16      7.6149   -0.3450    5.1480 C.ar    1  LIG  -0.1253  -0.1500 
20    C17      6.4042    0.0759    4.6050 C.ar    1  LIG  -0.1284  -0.1500 
21    H1       7.2170  -11.4568   -1.1779 H       1  LIG   0.0669   0.0000 
22    H2       5.7725  -10.5057   -1.5428 H       1  LIG   0.0333   0.0000 
23    H3       7.4222   -9.7932   -1.7393 H       1  LIG   0.0337   0.0000 
24    H4       5.7350   -8.1387   -1.5133 H       1  LIG   0.1407   0.1500 
25    H5       4.8903   -5.9615   -0.7952 H       1  LIG   0.1525   0.1500 
26    H6       5.7981   -6.9317    3.3047 H       1  LIG   0.1454   0.1500 
27    H7       6.6604   -9.1243    2.5910 H       1  LIG   0.1517   0.1500 
28    H8       3.2103   -3.2870    2.2314 H       1  LIG   0.4049   0.4000 
29    H9       6.6224   -4.5580    2.4585 H       1  LIG   0.1527   0.1500 
30    H10      2.3536   -1.1783    2.7909 H       1  LIG   0.0528   0.0000 
31    H11      2.9497   -1.6942    4.3733 H       1  LIG   0.0178   0.0000 
32    H12      4.4641   -0.0209    2.2865 H       1  LIG   0.0683   0.0000 
33    H13      3.8920    0.5051    3.8795 H       1  LIG   0.0538   0.0000 
34    H14      7.5840   -3.5911    4.1896 H       1  LIG   0.1309   0.1500 
35    H15      8.9626   -1.9979    5.4219 H       1  LIG   0.1321   0.1500 
36    H16      8.2372    0.3547    5.6981 H       1  LIG   0.1323   0.1500 
37    H17      6.0925    1.1088    4.7378 H       1  LIG   0.1321   0.1500 
@<TRIPOS>BOND
1     1     2     1
2     1     21    1
3     1     22    1
4     1     23    1
5     2     3     1
6     3     8     ar
7     3     4     ar
8     4     5     ar
9     4     24    1
10    5     6     ar
11    5     25    1
12    6     7     ar
13    6     9     1
14    7     8     ar
15    7     26    1
16    8     27    1
17    9     10    1
18    10    29    1
19    10    11    2
20    11    16    1
21    11    12    1
22    12    13    1
23    12    28    1
24    13    14    1
25    13    30    1
26    13    31    1
27    14    15    1
28    14    32    1
29    14    33    1
30    15    20    ar
31    15    16    ar
32    16    17    ar
33    17    18    ar
34    17    34    1
35    18    19    ar
36    18    35    1
37    19    20    ar
38    19    36    1
39    20    37    1
@<TRIPOS>SUBSTRUCTURE
1   LIG    1    
 
########## Number      : 392
########## Name        : ZINC00001677
########## Description : AM1BCC_CHARGES =  -0.0002 ORIGINAL_CHARGES =   0.0000

@<TRIPOS>MOLECULE
ZINC00001677
21    22    1     0     0    
SMALL
USER_CHARGES
****
****
@<TRIPOS>ATOM
1     C1       1.3653   -4.1121    2.7424 C.3     1  LIG  -0.0669   0.1382 
2     C2       1.6169   -4.9815    1.5486 C.2     1  LIG  -0.1160  -0.1238 
3     C3       2.2772   -6.1426    1.6304 C.2     1  LIG  -0.1973  -0.1356 
4     C4       2.5279   -7.0033    0.4568 C.2     1  LIG   0.5662   0.4694 
5     O1       3.1371   -8.0589    0.5773 O.2     1  LIG  -0.5135  -0.5700 
6     C5       2.0208   -6.5445   -0.8481 C.ar    1  LIG  -0.1326   0.0862 
7     C6       2.2362   -7.3293   -1.9870 C.ar    1  LIG  -0.0855  -0.1500 
8     C7       1.7595   -6.9024   -3.2267 C.ar    1  LIG  -0.1154  -0.1500 
9     C8       1.0695   -5.6959   -3.3320 C.ar    1  LIG  -0.1173  -0.1500 
10    C9       0.8536   -4.9117   -2.1980 C.ar    1  LIG  -0.0847  -0.1500 
11    C10      1.3302   -5.3363   -0.9518 C.ar    1  LIG  -0.1353   0.0862 
12    C11      1.0955   -4.4976    0.2411 C.2     1  LIG   0.5668   0.4694 
13    O2       0.4889   -3.4362    0.1510 O.2     1  LIG  -0.5115  -0.5700 
14    H1       1.7819   -4.5435    3.6589 H       1  LIG   0.0483   0.0000 
15    H2       1.8228   -3.1273    2.6020 H       1  LIG   0.0656   0.0000 
16    H3       0.2898   -3.9782    2.8985 H       1  LIG   0.0660   0.0000 
17    H4       2.6618   -6.5053    2.5785 H       1  LIG   0.1580   0.1500 
18    H5       2.7719   -8.2732   -1.9258 H       1  LIG   0.1605   0.1500 
19    H6       1.9263   -7.5111   -4.1110 H       1  LIG   0.1423   0.1500 
20    H7       0.6991   -5.3653   -4.2984 H       1  LIG   0.1423   0.1500 
21    H8       0.3130   -3.9745   -2.3034 H       1  LIG   0.1598   0.1500 
@<TRIPOS>BOND
1     1     2     1
2     1     14    1
3     1     15    1
4     1     16    1
5     2     12    1
6     2     3     2
7     3     4     1
8     3     17    1
9     4     5     2
10    4     6     1
11    6     11    ar
12    6     7     ar
13    7     8     ar
14    7     18    1
15    8     9     ar
16    8     19    1
17    9     10    ar
18    9     20    1
19    10    11    ar
20    10    21    1
21    11    12    1
22    12    13    2
@<TRIPOS>SUBSTRUCTURE
1   LIG    1    
 
########## Number      : 393
########## Name        : ZINC00001681
########## Description : AM1BCC_CHARGES =   0.9998 ORIGINAL_CHARGES =   1.0000

@<TRIPOS>MOLECULE
ZINC00001681
40    41    1     0     0    
SMALL
USER_CHARGES
****
****
@<TRIPOS>ATOM
1     C1       6.8231   -6.5004   -0.8049 C.3     1  LIG  -0.1058   0.0000 
2     C2       5.8776   -6.8003    0.3408 C.3     1  LIG   0.1399   0.2800 
3     O1       4.9081   -5.7446    0.4085 O.3     1  LIG  -0.4234  -0.4300 
4     C3       3.9758   -5.8597    1.4006 C.2     1  LIG   0.6221   0.6590 
5     O2       3.9207   -6.7792    2.2078 O.2     1  LIG  -0.5507  -0.5700 
6     C4       3.0164   -4.6486    1.3837 C.3     1  LIG  -0.0345   0.2045 
7     C5       1.8739   -4.8485    2.4226 C.3     1  LIG  -0.1010   0.0000 
8     C6       0.8987   -5.9735    2.0830 C.3     1  LIG   0.1012   0.5030 
9     C7       1.4308   -5.7173   -0.3396 C.3     1  LIG   0.1077   0.5030 
10    C8       2.3593   -4.5513   -0.0220 C.3     1  LIG  -0.1035   0.0000 
11    C9      -0.6928   -6.8118    0.3630 C.3     1  LIG   0.0852   0.5030 
12    C10      3.8328   -3.3983    1.7783 C.ar    1  LIG  -0.1122  -0.1435 
13    C11      4.0049   -2.2964    0.9240 C.ar    1  LIG  -0.1129  -0.1500 
14    C12      4.7626   -1.1876    1.3164 C.ar    1  LIG  -0.1189  -0.1500 
15    C13      5.3696   -1.1584    2.5677 C.ar    1  LIG  -0.1005  -0.1500 
16    C14      5.2236   -2.2404    3.4281 C.ar    1  LIG  -0.1145  -0.1500 
17    C15      4.4669   -3.3479    3.0370 C.ar    1  LIG  -0.1222  -0.1500 
18    H1       7.5839   -7.2803   -0.8976 H       1  LIG   0.0672   0.0000 
19    H2       6.2734   -6.4280   -1.7492 H       1  LIG   0.0485   0.0000 
20    H3       7.3205   -5.5370   -0.6518 H       1  LIG   0.0606   0.0000 
21    H4       6.4347   -6.8468    1.2829 H       1  LIG   0.0674   0.0000 
22    H5       5.3680   -7.7540    0.1655 H       1  LIG   0.0534   0.0000 
23    H6       2.2784   -5.0541    3.4215 H       1  LIG   0.1188   0.0000 
24    H7       1.3040   -3.9128    2.5141 H       1  LIG   0.0813   0.0000 
25    H8       1.3688   -6.9614    2.1154 H       1  LIG   0.1308   0.0000 
26    H9       0.0523   -5.9611    2.7782 H       1  LIG   0.1025   0.0000 
27    H10      1.9504   -6.6815   -0.3439 H       1  LIG   0.1099   0.0000 
28    H11      0.9465   -5.5630   -1.3098 H       1  LIG   0.1032   0.0000 
29    H12      1.7681   -3.6275   -0.0908 H       1  LIG   0.0799   0.0000 
30    H13      3.1188   -4.4911   -0.8115 H       1  LIG   0.1226   0.0000 
31    H14     -1.1052   -6.5711   -0.6203 H       1  LIG   0.1022   0.0000 
32    H15     -0.2157   -7.7955    0.3584 H       1  LIG   0.1083   0.0000 
33    H16     -1.4807   -6.7609    1.1190 H       1  LIG   0.1047   0.0000 
34    H17      3.5625   -2.2689   -0.0672 H       1  LIG   0.1293   0.1500 
35    H18      4.8797   -0.3466    0.6384 H       1  LIG   0.1492   0.1500 
36    H19      5.9582   -0.2970    2.8687 H       1  LIG   0.1527   0.1500 
37    H20      5.7007   -2.2273    4.4040 H       1  LIG   0.1514   0.1500 
38    H21      4.3853   -4.1808    3.7320 H       1  LIG   0.1380   0.1500 
39    N1       0.3445   -5.7753    0.6999 N.4     1  LIG  -0.6836  -0.9590 
40    H22     -0.1419   -4.8678    0.6904 H       1  LIG   0.4455   0.4500 
@<TRIPOS>BOND
1     1     2     1
2     1     18    1
3     1     19    1
4     1     20    1
5     2     3     1
6     2     21    1
7     2     22    1
8     3     4     1
9     4     5     2
10    4     6     1
11    6     10    1
12    6     7     1
13    6     12    1
14    7     8     1
15    7     23    1
16    7     24    1
17    8     25    1
18    8     26    1
19    8     39    1
20    9     10    1
21    9     27    1
22    9     28    1
23    9     39    1
24    10    29    1
25    10    30    1
26    11    31    1
27    11    32    1
28    11    33    1
29    11    39    1
30    12    17    ar
31    12    13    ar
32    13    14    ar
33    13    34    1
34    14    15    ar
35    14    35    1
36    15    16    ar
37    15    36    1
38    16    17    ar
39    16    37    1
40    17    38    1
41    39    40    1
@<TRIPOS>SUBSTRUCTURE
1   LIG    1    
 
########## Number      : 394
########## Name        : ZINC00001683
########## Description : AM1BCC_CHARGES =  -0.0003 ORIGINAL_CHARGES =   0.0000

@<TRIPOS>MOLECULE
ZINC00001683
16    16    1     0     0    
SMALL
USER_CHARGES
****
****
@<TRIPOS>ATOM
1     C1       6.2574   -9.6952    0.0521 C.ar    1  LIG  -0.0914  -0.1500 
2     C2       5.0660  -10.4125    0.0828 C.ar    1  LIG  -0.1507  -0.1500 
3     C3       3.8751   -9.8199   -0.3413 C.ar    1  LIG  -0.0421  -0.1435 
4     C4       3.9115   -8.5036   -0.8116 C.ar    1  LIG  -0.2025  -0.0605 
5     N1       5.0921   -7.7749   -0.8487 N.ar    1  LIG   0.5333   0.5710 
6     C5       6.2574   -8.3834   -0.4116 C.ar    1  LIG  -0.2158  -0.0605 
7     O1       5.1038   -6.5772   -1.2746 O.3     1  LIG  -0.5723  -0.7500 
8     C6       2.5882  -10.5890   -0.3366 C.3     1  LIG   0.1766   0.4235 
9     O2       2.4409  -11.2470   -1.5852 O.3     1  LIG  -0.5894  -0.6800 
10    H1       1.6011  -11.7359   -1.5526 H       1  LIG   0.4053   0.4000 
11    H2       7.1827  -10.1555    0.3847 H       1  LIG   0.1539   0.1500 
12    H3       5.0725  -11.4399    0.4387 H       1  LIG   0.1496   0.1500 
13    H4       3.0488   -7.9631   -1.1751 H       1  LIG   0.1877   0.1500 
14    H5       7.1378   -7.7604   -0.4685 H       1  LIG   0.1857   0.1500 
15    H6       2.5821  -11.3352    0.4653 H       1  LIG   0.0354   0.0000 
16    H7       1.7352   -9.9196   -0.1811 H       1  LIG   0.0364   0.0000 
@<TRIPOS>BOND
1     1     6     ar
2     1     2     ar
3     1     11    1
4     2     3     ar
5     2     12    1
6     3     4     ar
7     3     8     1
8     4     5     ar
9     4     13    1
10    5     6     ar
11    5     7     1
12    6     14    1
13    8     9     1
14    8     15    1
15    8     16    1
16    9     10    1
@<TRIPOS>SUBSTRUCTURE
1   LIG    1    
 
########## Number      : 395
########## Name        : ZINC00001684
########## Description : AM1BCC_CHARGES =   0.0002 ORIGINAL_CHARGES =   0.0000

@<TRIPOS>MOLECULE
ZINC00001684
17    17    1     0     0    
SMALL
USER_CHARGES
****
****
@<TRIPOS>ATOM
1     C1       6.9772   -7.3473    0.0783 C.3     1  LIG   0.1142   0.2800 
2     O1       5.6883   -7.2414   -0.5145 O.3     1  LIG  -0.3283  -0.3625 
3     C2       4.9808   -8.4046   -0.6649 C.ar    1  LIG   0.0894   0.0825 
4     C3       5.4132   -9.6796   -0.2885 C.ar    1  LIG  -0.1683  -0.1500 
5     C4       4.5906  -10.7898   -0.4981 C.ar    1  LIG  -0.1236  -0.1500 
6     C5       3.3388  -10.6241   -1.0829 C.ar    1  LIG   0.0895   0.0825 
7     C6       2.8948   -9.3612   -1.4627 C.ar    1  LIG  -0.1797  -0.1500 
8     C7       3.7184   -8.2542   -1.2522 C.ar    1  LIG  -0.1181  -0.1500 
9     O2       2.5624  -11.7318   -1.2721 O.3     1  LIG  -0.4992  -0.5325 
10    H1       1.7264  -11.4572   -1.6861 H       1  LIG   0.4170   0.4500 
11    H2       7.4060   -6.3416    0.1264 H       1  LIG   0.0659   0.0000 
12    H3       6.9107   -7.7298    1.1022 H       1  LIG   0.0321   0.0000 
13    H4       7.6437   -7.9641   -0.5335 H       1  LIG   0.0322   0.0000 
14    H5       6.3831   -9.8449    0.1699 H       1  LIG   0.1399   0.1500 
15    H6       4.9330  -11.7779   -0.2031 H       1  LIG   0.1509   0.1500 
16    H7       1.9194   -9.2238   -1.9195 H       1  LIG   0.1357   0.1500 
17    H8       3.3699   -7.2680   -1.5497 H       1  LIG   0.1506   0.1500 
@<TRIPOS>BOND
1     1     2     1
2     1     11    1
3     1     12    1
4     1     13    1
5     2     3     1
6     3     8     ar
7     3     4     ar
8     4     5     ar
9     4     14    1
10    5     6     ar
11    5     15    1
12    6     7     ar
13    6     9     1
14    7     8     ar
15    7     16    1
16    8     17    1
17    9     10    1
@<TRIPOS>SUBSTRUCTURE
1   LIG    1    
 
########## Number      : 396
########## Name        : ZINC00001688
########## Description : AM1BCC_CHARGES =  -1.0002 ORIGINAL_CHARGES =  -1.0000

@<TRIPOS>MOLECULE
ZINC00001688
17    17    1     0     0    
SMALL
USER_CHARGES
****
****
@<TRIPOS>ATOM
1     C1       5.4018   -5.9516   -0.4674 C.ar    1  LIG  -0.1662  -0.1500 
2     C2       4.3835   -5.1426   -0.9729 C.ar    1  LIG  -0.2186  -0.1500 
3     C3       3.3436   -5.7100   -1.7120 C.ar    1  LIG   0.1111   0.0825 
4     C4       3.3014   -7.0894   -1.9479 C.ar    1  LIG  -0.0995  -0.1790 
5     C5       4.3425   -7.8852   -1.4352 C.ar    1  LIG  -0.1314  -0.1500 
6     C6       5.4013   -7.3288   -0.7044 C.ar    1  LIG   0.0437   0.1000 
7     N1       6.3985   -8.1372   -0.1789 N.pl3   1  LIG  -0.7932  -0.9000 
8     C7       2.1915   -7.7442   -2.7220 C.2     1  LIG   0.9208   0.9790 
9     O1       1.0078   -7.3369   -2.5080 O.co2   1  LIG  -0.8074  -0.9000 
10    O2       2.3694   -4.8991   -2.2277 O.3     1  LIG  -0.4683  -0.5325 
11    H1       6.4232   -9.1229   -0.4041 H       1  LIG   0.3586   0.4000 
12    H2       7.1904   -7.7258    0.2963 H       1  LIG   0.3456   0.4000 
13    H3       2.5435   -3.9827   -1.9560 H       1  LIG   0.3840   0.4500 
14    H4       6.2016   -5.4947    0.1105 H       1  LIG   0.1063   0.1500 
15    H5       4.4150   -4.0728   -0.7861 H       1  LIG   0.1052   0.1500 
16    H6       4.3233   -8.9610   -1.6043 H       1  LIG   0.1471   0.1500 
17    O3       2.5271   -8.6743   -3.5205 O.co2   1  LIG  -0.8380  -0.9000 
@<TRIPOS>BOND
1     1     6     ar
2     1     2     ar
3     1     14    1
4     2     3     ar
5     2     15    1
6     3     4     ar
7     3     10    1
8     4     5     ar
9     4     8     1
10    5     6     ar
11    5     16    1
12    6     7     1
13    7     11    1
14    7     12    1
15    8     9     2
16    8     17    1
17    10    13    1
@<TRIPOS>SUBSTRUCTURE
1   LIG    1    
 
########## Number      : 397
########## Name        : ZINC00001689
########## Description : AM1BCC_CHARGES =   0.9999 ORIGINAL_CHARGES =   1.0000

@<TRIPOS>MOLECULE
ZINC00001689
33    33    1     0     0    
SMALL
USER_CHARGES
****
****
@<TRIPOS>ATOM
1     C1       2.4179   -7.7928   -1.7069 C.3     1  LIG   0.1079   0.2800 
2     O1       3.6389   -7.4998   -1.0393 O.3     1  LIG  -0.2953  -0.3625 
3     C2       3.5912   -6.5948   -0.0109 C.ar    1  LIG   0.1535   0.0825 
4     C3       2.4414   -5.9298    0.4214 C.ar    1  LIG  -0.2241  -0.1500 
5     C4       2.4968   -5.0349    1.5014 C.ar    1  LIG  -0.0708  -0.1435 
6     C5       3.7195   -4.8037    2.1510 C.ar    1  LIG  -0.2235  -0.1500 
7     C6       4.8810   -5.4584    1.7346 C.ar    1  LIG   0.1526   0.0825 
8     C7       4.8078   -6.3350    0.6402 C.ar    1  LIG   0.0698   0.0825 
9     O2       5.9404   -7.0106    0.2431 O.3     1  LIG  -0.3034  -0.3625 
10    C8       6.6337   -6.2620   -0.7566 C.3     1  LIG   0.1148   0.2800 
11    O3       6.1159   -5.3175    2.3127 O.3     1  LIG  -0.2965  -0.3625 
12    C9       6.2157   -4.4466    3.4326 C.3     1  LIG   0.1083   0.2800 
13    C10      1.2523   -4.3067    1.9470 C.3     1  LIG  -0.0479   0.1435 
14    C11      1.0909   -2.9860    1.2063 C.3     1  LIG   0.0964   0.5030 
15    H1      -0.2774   -1.4107    1.1919 H       1  LIG   0.4628   0.4500 
16    H2      -0.9805   -2.8785    1.5014 H       1  LIG   0.4590   0.4500 
17    H3       2.6321   -8.5319   -2.4849 H       1  LIG   0.0893   0.0000 
18    H4       1.6881   -8.2346   -1.0205 H       1  LIG   0.0412   0.0000 
19    H5       2.0132   -6.9016   -2.1978 H       1  LIG   0.0264   0.0000 
20    H6       1.4830   -6.0925   -0.0634 H       1  LIG   0.1379   0.1500 
21    H7       3.7356   -4.1078    2.9850 H       1  LIG   0.1377   0.1500 
22    H8       7.5231   -6.8311   -1.0433 H       1  LIG   0.0778   0.0000 
23    H9       6.0167   -6.1248   -1.6512 H       1  LIG   0.0346   0.0000 
24    H10      6.9629   -5.2911   -0.3707 H       1  LIG   0.0347   0.0000 
25    H11      7.2559   -4.4581    3.7723 H       1  LIG   0.0892   0.0000 
26    H12      5.9684   -3.4168    3.1546 H       1  LIG   0.0259   0.0000 
27    H13      5.5914   -4.7956    4.2616 H       1  LIG   0.0418   0.0000 
28    H14      0.3760   -4.9472    1.7833 H       1  LIG   0.0726   0.0000 
29    H15      1.2975   -4.1353    3.0303 H       1  LIG   0.0728   0.0000 
30    H16      1.9221   -2.2999    1.3977 H       1  LIG   0.1178   0.0000 
31    H17      0.9826   -3.1277    0.1264 H       1  LIG   0.1177   0.0000 
32    N1      -0.1421   -2.3082    1.6763 N.4     1  LIG  -0.8399  -0.8530 
33    H18     -0.1060   -2.1080    2.6848 H       1  LIG   0.4588   0.4500 
@<TRIPOS>BOND
1     1     2     1
2     1     17    1
3     1     18    1
4     1     19    1
5     2     3     1
6     3     8     ar
7     3     4     ar
8     4     5     ar
9     4     20    1
10    5     6     ar
11    5     13    1
12    6     7     ar
13    6     21    1
14    7     8     ar
15    7     11    1
16    8     9     1
17    9     10    1
18    10    22    1
19    10    23    1
20    10    24    1
21    11    12    1
22    12    25    1
23    12    26    1
24    12    27    1
25    13    14    1
26    13    28    1
27    13    29    1
28    14    30    1
29    14    31    1
30    14    32    1
31    15    32    1
32    16    32    1
33    32    33    1
@<TRIPOS>SUBSTRUCTURE
1   LIG    1    
 
########## Number      : 398
########## Name        : ZINC00001691
########## Description : AM1BCC_CHARGES =  -0.0000 ORIGINAL_CHARGES =  -0.0000

@<TRIPOS>MOLECULE
ZINC00001691
20    20    1     0     0    
SMALL
USER_CHARGES
****
****
@<TRIPOS>ATOM
1     C1       5.0266  -10.1443   -3.1907 C.3     1  LIG  -0.1793   0.0610 
2     C2       4.7402   -9.2674   -1.9976 C.2     1  LIG   0.6669   0.5690 
3     O1       4.9109   -9.6832   -0.8564 O.2     1  LIG  -0.5846  -0.5700 
4     N1       4.2882   -8.0151   -2.3909 N.am    1  LIG  -0.4752  -0.5470 
5     C3       3.9214   -6.9324   -1.5580 C.ar    1  LIG   0.1056   0.1170 
6     C4       3.9620   -6.9662   -0.1602 C.ar    1  LIG  -0.1906  -0.1500 
7     C5       3.5802   -5.8460    0.5870 C.ar    1  LIG  -0.0674  -0.1500 
8     C6       3.1548   -4.6830   -0.0507 C.ar    1  LIG  -0.2401  -0.1500 
9     C7       3.1140   -4.6482   -1.4403 C.ar    1  LIG   0.1497   0.0825 
10    C8       3.4922   -5.7586   -2.1941 C.ar    1  LIG  -0.2210  -0.1500 
11    O2       2.7031   -3.5276   -2.1055 O.3     1  LIG  -0.5011  -0.5325 
12    H1       4.2074   -7.8450   -3.3902 H       1  LIG   0.3163   0.3700 
13    H2       2.4746   -2.8452   -1.4515 H       1  LIG   0.4204   0.4500 
14    H3       5.3804  -11.1229   -2.8543 H       1  LIG   0.0824   0.0000 
15    H4       4.1147  -10.2808   -3.7790 H       1  LIG   0.0632   0.0000 
16    H5       5.7988   -9.6838   -3.8135 H       1  LIG   0.0623   0.0000 
17    H6       4.2845   -7.8443    0.3877 H       1  LIG   0.1752   0.1500 
18    H7       3.6163   -5.8852    1.6725 H       1  LIG   0.1362   0.1500 
19    H8       2.8616   -3.8218    0.5418 H       1  LIG   0.1347   0.1500 
20    H9       3.4497   -5.7013   -3.2795 H       1  LIG   0.1464   0.1500 
@<TRIPOS>BOND
1     1     2     1
2     1     14    1
3     1     15    1
4     1     16    1
5     2     3     2
6     2     4     am
7     4     5     1
8     4     12    1
9     5     10    ar
10    5     6     ar
11    6     7     ar
12    6     17    1
13    7     8     ar
14    7     18    1
15    8     9     ar
16    8     19    1
17    9     10    ar
18    9     11    1
19    10    20    1
20    11    13    1
@<TRIPOS>SUBSTRUCTURE
1   LIG    1    
 
########## Number      : 399
########## Name        : ZINC00001692
########## Description : AM1BCC_CHARGES =   0.0005 ORIGINAL_CHARGES =   0.0000

@<TRIPOS>MOLECULE
ZINC00001692
42    43    1     0     0    
SMALL
USER_CHARGES
****
****
@<TRIPOS>ATOM
1     C1       2.7358   -1.5862    1.5950 C.3     1  LIG  -0.0947   0.0000 
2     C2       4.1762   -1.6798    2.0830 C.3     1  LIG  -0.0770   0.0000 
3     C3       4.6514   -3.1376    2.3423 C.3     1  LIG  -0.0145   0.1435 
4     C4       6.0146   -3.1082    3.0321 C.ar    1  LIG  -0.0384  -0.1435 
5     C5       7.0943   -2.3355    2.5764 C.ar    1  LIG  -0.1639  -0.1500 
6     C6       8.3197   -2.3450    3.2496 C.ar    1  LIG  -0.0931  -0.1500 
7     C7       8.4869   -3.1209    4.3936 C.ar    1  LIG  -0.2139  -0.1500 
8     C8       7.4205   -3.8819    4.8601 C.ar    1  LIG   0.1246   0.0825 
9     C9       6.1950   -3.8773    4.1956 C.ar    1  LIG  -0.1484  -0.1500 
10    O1       7.5427   -4.6545    5.9805 O.3     1  LIG  -0.4988  -0.5325 
11    C10      4.6547   -4.0429    1.0587 C.3     1  LIG  -0.0117   0.1435 
12    C11      5.6002   -3.5759   -0.0829 C.3     1  LIG  -0.0775   0.0000 
13    C12      5.3615   -4.3220   -1.3942 C.3     1  LIG  -0.0954   0.0000 
14    C13      4.9198   -5.4935    1.4594 C.ar    1  LIG  -0.0390  -0.1435 
15    C14      3.8143   -6.3009    1.7843 C.ar    1  LIG  -0.1683  -0.1500 
16    C15      3.9819   -7.6319    2.1743 C.ar    1  LIG  -0.0925  -0.1500 
17    C16      5.2582   -8.1816    2.2510 C.ar    1  LIG  -0.2151  -0.1500 
18    C17      6.3589   -7.3906    1.9370 C.ar    1  LIG   0.1239   0.0825 
19    C18      6.2005   -6.0608    1.5450 C.ar    1  LIG  -0.1436  -0.1500 
20    O2       7.6284   -7.8928    2.0069 O.3     1  LIG  -0.4988  -0.5325 
21    H1       8.4471   -4.5593    6.3248 H       1  LIG   0.4171   0.4500 
22    H2       7.5791   -8.8193    2.2978 H       1  LIG   0.4169   0.4500 
23    H3       2.4192   -0.5384    1.5653 H       1  LIG   0.0352   0.0000 
24    H4       2.6264   -1.9893    0.5843 H       1  LIG   0.0336   0.0000 
25    H5       2.0562   -2.1250    2.2623 H       1  LIG   0.0345   0.0000 
26    H6       4.8202   -1.1612    1.3653 H       1  LIG   0.0429   0.0000 
27    H7       4.2475   -1.1129    3.0212 H       1  LIG   0.0479   0.0000 
28    H8       3.8907   -3.5472    3.0346 H       1  LIG   0.0573   0.0000 
29    H9       7.0023   -1.7171    1.6879 H       1  LIG   0.1339   0.1500 
30    H10      9.1446   -1.7436    2.8774 H       1  LIG   0.1310   0.1500 
31    H11      9.4434   -3.1210    4.9073 H       1  LIG   0.1322   0.1500 
32    H12      5.3786   -4.4831    4.5827 H       1  LIG   0.1520   0.1500 
33    H13      3.6507   -3.9620    0.6041 H       1  LIG   0.0554   0.0000 
34    H14      5.4264   -2.5134   -0.2853 H       1  LIG   0.0394   0.0000 
35    H15      6.6567   -3.6704    0.1830 H       1  LIG   0.0508   0.0000 
36    H16      6.0007   -3.9079   -2.1808 H       1  LIG   0.0326   0.0000 
37    H17      5.5930   -5.3871   -1.3049 H       1  LIG   0.0438   0.0000 
38    H18      4.3211   -4.2206   -1.7190 H       1  LIG   0.0313   0.0000 
39    H19      2.8069   -5.8928    1.7370 H       1  LIG   0.1306   0.1500 
40    H20      3.1139   -8.2372    2.4198 H       1  LIG   0.1311   0.1500 
41    H21      5.3799   -9.2163    2.5566 H       1  LIG   0.1319   0.1500 
42    H22      7.0884   -5.4766    1.3223 H       1  LIG   0.1552   0.1500 
@<TRIPOS>BOND
1     1     2     1
2     1     23    1
3     1     24    1
4     1     25    1
5     2     3     1
6     2     26    1
7     2     27    1
8     3     4     1
9     3     11    1
10    3     28    1
11    4     9     ar
12    4     5     ar
13    5     6     ar
14    5     29    1
15    6     7     ar
16    6     30    1
17    7     8     ar
18    7     31    1
19    8     9     ar
20    8     10    1
21    9     32    1
22    10    21    1
23    11    12    1
24    11    14    1
25    11    33    1
26    12    13    1
27    12    34    1
28    12    35    1
29    13    36    1
30    13    37    1
31    13    38    1
32    14    19    ar
33    14    15    ar
34    15    16    ar
35    15    39    1
36    16    17    ar
37    16    40    1
38    17    18    ar
39    17    41    1
40    18    19    ar
41    18    20    1
42    19    42    1
43    20    22    1
@<TRIPOS>SUBSTRUCTURE
1   LIG    1    
 
########## Number      : 400
########## Name        : ZINC00001695
########## Description : AM1BCC_CHARGES =   1.0001 ORIGINAL_CHARGES =   1.0000

@<TRIPOS>MOLECULE
ZINC00001695
26    26    1     0     0    
SMALL
USER_CHARGES
****
****
@<TRIPOS>ATOM
1     C1       1.4834    0.2246    0.7566 C.3     1  LIG  -0.1339   0.0000 
2     C2       2.3918   -0.4221    1.8056 C.3     1  LIG   0.1190   0.5030 
3     C3       1.8242   -1.7790    2.2915 C.3     1  LIG   0.1912   0.4235 
4     C4       2.7127   -2.4400    3.3325 C.ar    1  LIG  -0.1814  -0.1435 
5     C5       2.9233   -1.8467    4.5883 C.ar    1  LIG  -0.1470  -0.1500 
6     C6       3.7513   -2.4545    5.5344 C.ar    1  LIG  -0.0875  -0.1500 
7     C7       4.3776   -3.6632    5.2407 C.ar    1  LIG  -0.1196  -0.1500 
8     C8       4.1683   -4.2593    4.0012 C.ar    1  LIG   0.1414   0.0825 
9     C9       3.3438   -3.6609    3.0479 C.ar    1  LIG  -0.2360  -0.1500 
10    O1       4.7941   -5.4469    3.7455 O.3     1  LIG  -0.4742  -0.5325 
11    O2       0.5487   -1.5725    2.8797 O.3     1  LIG  -0.5841  -0.6800 
12    H1       4.5370   -5.7518    2.8588 H       1  LIG   0.4333   0.4500 
13    H2      -0.1045   -1.5009    2.1630 H       1  LIG   0.4480   0.4000 
14    H3       4.4046   -0.9941    1.8824 H       1  LIG   0.4729   0.4500 
15    H4       3.6977   -1.2922    0.4110 H       1  LIG   0.4518   0.4500 
16    H5       0.5050    0.4731    1.1800 H       1  LIG   0.1239   0.0000 
17    H6       1.9231    1.1556    0.3820 H       1  LIG   0.0681   0.0000 
18    H7       1.3246   -0.4415   -0.0985 H       1  LIG   0.0648   0.0000 
19    H8       2.4660    0.2883    2.6448 H       1  LIG   0.1263   0.0000 
20    H9       1.7395   -2.4667    1.4335 H       1  LIG   0.0672   0.0000 
21    H10      2.4385   -0.9067    4.8417 H       1  LIG   0.1557   0.1500 
22    H11      3.9047   -1.9851    6.5021 H       1  LIG   0.1649   0.1500 
23    H12      5.0201   -4.1346    5.9788 H       1  LIG   0.1797   0.1500 
24    H13      3.1921   -4.1423    2.0852 H       1  LIG   0.1413   0.1500 
25    N1       3.7272   -0.6301    1.1981 N.4     1  LIG  -0.8445  -0.8530 
26    H14      4.1169    0.2526    0.8404 H       1  LIG   0.4588   0.4500 
@<TRIPOS>BOND
1     1     2     1
2     1     16    1
3     1     17    1
4     1     18    1
5     2     3     1
6     2     19    1
7     2     25    1
8     3     4     1
9     3     11    1
10    3     20    1
11    4     9     ar
12    4     5     ar
13    5     6     ar
14    5     21    1
15    6     7     ar
16    6     22    1
17    7     8     ar
18    7     23    1
19    8     9     ar
20    8     10    1
21    9     24    1
22    10    12    1
23    11    13    1
24    14    25    1
25    15    25    1
26    25    26    1
@<TRIPOS>SUBSTRUCTURE
1   LIG    1    
 
########## Number      : 401
########## Name        : ZINC00001699
########## Description : AM1BCC_CHARGES =   0.9996 ORIGINAL_CHARGES =   1.0000

@<TRIPOS>MOLECULE
ZINC00001699
39    40    1     0     0    
SMALL
USER_CHARGES
****
****
@<TRIPOS>ATOM
1     C1       5.7236   -7.8144   -0.2309 C.3     1  LIG   0.0830   0.5030 
2     C2       5.4737   -8.3704    2.1744 C.3     1  LIG   0.0804   0.5030 
3     C3       4.4896   -6.2336    1.2525 C.3     1  LIG   0.0427   0.5030 
4     C4       3.3072   -6.1262    2.2212 C.3     1  LIG   0.1984   0.3691 
5     N1       2.8130   -4.7404    2.3076 N.pl3   1  LIG  -0.6327  -0.8382 
6     C5       1.5558   -4.4550    1.5900 C.3     1  LIG   0.2662   0.5491 
7     C6       1.6873   -4.2925    0.0987 C.2     1  LIG  -0.1936  -0.1400 
8     C7       2.2744   -3.2610   -0.6079 C.2     1  LIG  -0.1497  -0.1500 
9     C8       2.2139   -3.4613   -2.0172 C.2     1  LIG  -0.1592  -0.1500 
10    C9       1.5795   -4.6376   -2.3443 C.2     1  LIG  -0.1527  -0.1100 
11    S1       1.0609   -5.4921   -0.9581 S.3     1  LIG   0.0204  -0.0800 
12    C10      3.5244   -3.7521    2.9895 C.ar    1  LIG   0.1235   0.1000 
13    C11      3.2071   -2.3825    2.8895 C.ar    1  LIG  -0.1722  -0.1500 
14    C12      3.9228   -1.3912    3.5755 C.ar    1  LIG  -0.0905  -0.1500 
15    C13      4.9871   -1.7375    4.3946 C.ar    1  LIG  -0.1399  -0.1500 
16    C14      5.3316   -3.0744    4.5254 C.ar    1  LIG  -0.0975  -0.1500 
17    C15      4.6112   -4.0590    3.8355 C.ar    1  LIG  -0.1913  -0.1500 
18    H1       5.1870   -7.3849   -1.0810 H       1  LIG   0.1074   0.0000 
19    H2       6.6601   -7.2815   -0.0460 H       1  LIG   0.1072   0.0000 
20    H3       5.9041   -8.8779   -0.4082 H       1  LIG   0.1027   0.0000 
21    H4       4.7487   -8.3847    2.9904 H       1  LIG   0.1061   0.0000 
22    H5       5.7126   -9.3974    1.8852 H       1  LIG   0.1027   0.0000 
23    H6       6.3776   -7.8246    2.4574 H       1  LIG   0.1066   0.0000 
24    H7       5.3911   -5.7344    1.6221 H       1  LIG   0.1143   0.0000 
25    H8       4.2266   -5.7951    0.2844 H       1  LIG   0.1194   0.0000 
26    H9       2.5018   -6.7814    1.8646 H       1  LIG   0.0630   0.0000 
27    H10      3.5528   -6.5079    3.2174 H       1  LIG   0.0689   0.0000 
28    H11      0.8557   -5.2750    1.8050 H       1  LIG   0.0631   0.0000 
29    H12      1.0360   -3.5826    2.0031 H       1  LIG   0.0991   0.0000 
30    H13      2.7332   -2.3988   -0.1420 H       1  LIG   0.1660   0.1500 
31    H14      2.6149   -2.7760   -2.7529 H       1  LIG   0.1691   0.1500 
32    H15      1.3943   -5.0348   -3.3325 H       1  LIG   0.1868   0.1500 
33    H16      2.3940   -2.0327    2.2604 H       1  LIG   0.1456   0.1500 
34    H17      3.6416   -0.3477    3.4626 H       1  LIG   0.1489   0.1500 
35    H18      5.5424   -0.9719    4.9274 H       1  LIG   0.1509   0.1500 
36    H19      6.1605   -3.3615    5.1666 H       1  LIG   0.1417   0.1500 
37    H20      4.9311   -5.0851    3.9947 H       1  LIG   0.1174   0.1500 
38    N2       4.8487   -7.6844    0.9894 N.4     1  LIG  -0.6703  -0.9590 
39    H21      3.9769   -8.1857    0.7711 H       1  LIG   0.4477   0.4500 
@<TRIPOS>BOND
1     1     18    1
2     1     19    1
3     1     20    1
4     1     38    1
5     2     21    1
6     2     22    1
7     2     23    1
8     2     38    1
9     3     4     1
10    3     24    1
11    3     25    1
12    3     38    1
13    4     5     1
14    4     26    1
15    4     27    1
16    5     6     1
17    5     12    1
18    6     7     1
19    6     28    1
20    6     29    1
21    7     11    1
22    7     8     2
23    8     9     1
24    8     30    1
25    9     10    2
26    9     31    1
27    10    11    1
28    10    32    1
29    12    17    ar
30    12    13    ar
31    13    14    ar
32    13    33    1
33    14    15    ar
34    14    34    1
35    15    16    ar
36    15    35    1
37    16    17    ar
38    16    36    1
39    17    37    1
40    38    39    1
@<TRIPOS>SUBSTRUCTURE
1   LIG    1    
 
########## Number      : 402
########## Name        : ZINC00001701
########## Description : AM1BCC_CHARGES =  -0.0000 ORIGINAL_CHARGES =   0.0000

@<TRIPOS>MOLECULE
ZINC00001701
33    35    1     0     0    
SMALL
USER_CHARGES
****
****
@<TRIPOS>ATOM
1     C1       7.1809   -6.6337    2.9764 C.3     1  LIG  -0.0646   0.1435 
2     C2       6.2297   -7.4700    2.1657 C.ar    1  LIG  -0.0456  -0.1435 
3     C3       6.4067   -8.8635    2.1562 C.ar    1  LIG  -0.1291  -0.1500 
4     C4       5.5688   -9.6883    1.4049 C.ar    1  LIG  -0.1164  -0.1500 
5     C5       4.5342   -9.1345    0.6578 C.ar    1  LIG  -0.1330  -0.1500 
6     C6       4.3312   -7.7556    0.6669 C.ar    1  LIG  -0.1213  -0.1500 
7     C7       5.1684   -6.9155    1.4200 C.ar    1  LIG   0.0253   0.1170 
8     N1       4.8946   -5.5118    1.4375 N.am    1  LIG  -0.3242  -0.2370 
9     C8       4.9950   -4.7366    0.2837 C.2     1  LIG   0.5064   0.4490 
10    N2       4.6864   -3.4777    0.2320 N.2     1  LIG  -0.6287  -0.6290 
11    C9       4.2521   -2.8436    1.4020 C.ar    1  LIG   0.1856   0.1790 
12    C10      3.9403   -1.4805    1.3564 C.ar    1  LIG  -0.1244  -0.1500 
13    C11      3.5142   -0.8097    2.5042 C.ar    1  LIG  -0.0951  -0.1500 
14    C12      3.3963   -1.4974    3.7103 C.ar    1  LIG  -0.1552  -0.1500 
15    C13      3.7029   -2.8560    3.7701 C.ar    1  LIG  -0.0599  -0.1500 
16    C14      4.1302   -3.5220    2.6156 C.ar    1  LIG  -0.1933   0.0862 
17    C15      4.4454   -4.9644    2.6517 C.2     1  LIG   0.7138   0.5438 
18    O1       4.2621   -5.5856    3.6959 O.2     1  LIG  -0.6111  -0.5700 
19    C16      5.5178   -5.3636   -0.9913 C.3     1  LIG  -0.1386   0.0610 
20    H1       8.1588   -7.1219    3.0542 H       1  LIG   0.0444   0.0000 
21    H2       7.3563   -5.6602    2.5078 H       1  LIG   0.0465   0.0000 
22    H3       6.7899   -6.4851    3.9871 H       1  LIG   0.0722   0.0000 
23    H4       7.2102   -9.3172    2.7324 H       1  LIG   0.1376   0.1500 
24    H5       5.7240  -10.7634    1.4052 H       1  LIG   0.1361   0.1500 
25    H6       3.8781   -9.7767    0.0774 H       1  LIG   0.1369   0.1500 
26    H7       3.4977   -7.3443    0.1023 H       1  LIG   0.1400   0.1500 
27    H8       4.0305   -0.9325    0.4215 H       1  LIG   0.1523   0.1500 
28    H9       3.2753    0.2490    2.4566 H       1  LIG   0.1363   0.1500 
29    H10      3.0644   -0.9753    4.6033 H       1  LIG   0.1391   0.1500 
30    H11      3.6036   -3.3790    4.7175 H       1  LIG   0.1583   0.1500 
31    H12      6.3467   -6.0470   -0.7926 H       1  LIG   0.0666   0.0000 
32    H13      4.7086   -5.9015   -1.4924 H       1  LIG   0.0644   0.0000 
33    H14      5.8760   -4.5830   -1.6702 H       1  LIG   0.0787   0.0000 
@<TRIPOS>BOND
1     1     2     1
2     1     20    1
3     1     21    1
4     1     22    1
5     2     7     ar
6     2     3     ar
7     3     4     ar
8     3     23    1
9     4     5     ar
10    4     24    1
11    5     6     ar
12    5     25    1
13    6     7     ar
14    6     26    1
15    7     8     1
16    8     17    am
17    8     9     1
18    9     10    2
19    9     19    1
20    10    11    1
21    11    16    ar
22    11    12    ar
23    12    13    ar
24    12    27    1
25    13    14    ar
26    13    28    1
27    14    15    ar
28    14    29    1
29    15    16    ar
30    15    30    1
31    16    17    1
32    17    18    2
33    19    31    1
34    19    32    1
35    19    33    1
@<TRIPOS>SUBSTRUCTURE
1   LIG    1    
 
########## Number      : 403
########## Name        : ZINC00001703
########## Description : AM1BCC_CHARGES =  -0.0002 ORIGINAL_CHARGES =   0.0000

@<TRIPOS>MOLECULE
ZINC00001703
57    60    1     0     0    
SMALL
USER_CHARGES
****
****
@<TRIPOS>ATOM
1     C1       2.7310   -4.0022    5.7753 C.3     1  LIG  -0.0758   0.1382 
2     C2       1.5897   -4.4899    6.6331 C.2     1  LIG  -0.0334  -0.2764 
3     C3       1.3126   -3.7680    7.7353 C.2     1  LIG  -0.2675  -0.1356 
4     C4       0.2946   -4.1902    8.7190 C.2     1  LIG   0.5698   0.4946 
5     O1       0.0920   -3.5078    9.7211 O.2     1  LIG  -0.5379  -0.5700 
6     C5      -0.4126   -5.4940    8.4888 C.3     1  LIG  -0.1815   0.0610 
7     C6      -0.5769   -5.7573    6.9962 C.3     1  LIG  -0.0522   0.0000 
8     C7       0.8215   -5.7893    6.2590 C.3     1  LIG  -0.0028   0.1382 
9     C8       0.4922   -5.8209    4.6835 C.3     1  LIG  -0.0422   0.0000 
10    C9       1.7061   -6.2844    3.7975 C.3     1  LIG  -0.0712   0.0000 
11    C10      1.7172   -7.7307    3.2910 C.3     1  LIG  -0.0555   0.0000 
12    C11      0.3739   -8.2457    2.7303 C.3     1  LIG  -0.0393   0.0000 
13    C12     -0.7054   -7.1546    2.9416 C.3     1  LIG  -0.0649   0.0000 
14    C13     -0.8244   -6.6023    4.3656 C.3     1  LIG  -0.0338   0.0000 
15    C14     -1.2330   -7.6492    5.3979 C.3     1  LIG  -0.0747   0.0000 
16    C15     -1.3747   -7.0562    6.7910 C.3     1  LIG  -0.0727   0.0000 
17    C16     -1.9039   -7.7240    2.1908 C.3     1  LIG  -0.0727   0.0000 
18    C17     -1.2428   -8.4031    0.9548 C.3     1  LIG  -0.0988   0.0000 
19    C18      0.3004   -8.4263    1.2139 C.3     1  LIG   0.1471   0.2800 
20    O2       0.9098   -7.2884    0.5711 O.3     1  LIG  -0.4423  -0.4300 
21    C19      1.1956   -7.4068   -0.7557 C.2     1  LIG   0.6320   0.6590 
22    O3       0.9785   -8.3823   -1.4609 O.2     1  LIG  -0.5424  -0.5700 
23    C20      1.8261   -6.1389   -1.2452 C.3     1  LIG  -0.1508   0.0610 
24    C21      0.1023   -9.6270    3.3938 C.3     1  LIG  -0.0880   0.0000 
25    C22      1.6892   -6.9888    6.7159 C.3     1  LIG  -0.0830   0.0000 
26    H1       3.1851   -3.0863    6.1718 H       1  LIG   0.0469   0.0000 
27    H2       3.5303   -4.7475    5.7350 H       1  LIG   0.0527   0.0000 
28    H3       2.3954   -3.7628    4.7629 H       1  LIG   0.0551   0.0000 
29    H4       1.8583   -2.8629    7.9828 H       1  LIG   0.1464   0.1500 
30    H5       0.1332   -6.2887    9.0065 H       1  LIG   0.0729   0.0000 
31    H6      -1.4049   -5.4196    8.9507 H       1  LIG   0.0736   0.0000 
32    H7      -1.2038   -4.9558    6.5564 H       1  LIG   0.0555   0.0000 
33    H8       0.3291   -4.7784    4.3372 H       1  LIG   0.0407   0.0000 
34    H9       1.7097   -5.6411    2.9052 H       1  LIG   0.0380   0.0000 
35    H10      2.6683   -6.0874    4.2709 H       1  LIG   0.0413   0.0000 
36    H11      2.5071   -7.8381    2.5365 H       1  LIG   0.0496   0.0000 
37    H12      2.0544   -8.3541    4.1276 H       1  LIG   0.0388   0.0000 
38    H13     -0.4893   -6.2334    2.3621 H       1  LIG   0.0592   0.0000 
39    H14     -1.6517   -5.8681    4.4144 H       1  LIG   0.0448   0.0000 
40    H15     -2.1758   -8.1311    5.1152 H       1  LIG   0.0429   0.0000 
41    H16     -0.5003   -8.4414    5.4804 H       1  LIG   0.0483   0.0000 
42    H17     -1.0881   -7.8156    7.5301 H       1  LIG   0.0416   0.0000 
43    H18     -2.4343   -6.8435    6.9852 H       1  LIG   0.0420   0.0000 
44    H19     -2.4685   -8.4529    2.7794 H       1  LIG   0.0437   0.0000 
45    H20     -2.6029   -6.9397    1.8819 H       1  LIG   0.0460   0.0000 
46    H21     -1.6300   -9.4240    0.8624 H       1  LIG   0.0555   0.0000 
47    H22     -1.4948   -7.8559    0.0406 H       1  LIG   0.0576   0.0000 
48    H23      0.7447   -9.3549    0.8278 H       1  LIG   0.0769   0.0000 
49    H24      2.0678   -6.2404   -2.3071 H       1  LIG   0.0763   0.0000 
50    H25      1.1275   -5.3071   -1.1243 H       1  LIG   0.0749   0.0000 
51    H26      2.7510   -5.9483   -0.6950 H       1  LIG   0.0738   0.0000 
52    H27     -0.9533   -9.9099    3.3895 H       1  LIG   0.0420   0.0000 
53    H28      0.6407  -10.4126    2.8479 H       1  LIG   0.0357   0.0000 
54    H29      0.4697   -9.7105    4.4186 H       1  LIG   0.0393   0.0000 
55    H30      1.8516   -6.9778    7.7991 H       1  LIG   0.0385   0.0000 
56    H31      1.2540   -7.9573    6.4700 H       1  LIG   0.0468   0.0000 
57    H32      2.6885   -6.9673    6.2694 H       1  LIG   0.0370   0.0000 
@<TRIPOS>BOND
1     1     2     1
2     1     26    1
3     1     27    1
4     1     28    1
5     2     8     1
6     2     3     2
7     3     4     1
8     3     29    1
9     4     5     2
10    4     6     1
11    6     7     1
12    6     30    1
13    6     31    1
14    7     16    1
15    7     8     1
16    7     32    1
17    8     9     1
18    8     25    1
19    9     14    1
20    9     10    1
21    9     33    1
22    10    11    1
23    10    34    1
24    10    35    1
25    11    12    1
26    11    36    1
27    11    37    1
28    12    19    1
29    12    13    1
30    12    24    1
31    13    14    1
32    13    17    1
33    13    38    1
34    14    15    1
35    14    39    1
36    15    16    1
37    15    40    1
38    15    41    1
39    16    42    1
40    16    43    1
41    17    18    1
42    17    44    1
43    17    45    1
44    18    19    1
45    18    46    1
46    18    47    1
47    19    20    1
48    19    48    1
49    20    21    1
50    21    22    2
51    21    23    1
52    23    49    1
53    23    50    1
54    23    51    1
55    24    52    1
56    24    53    1
57    24    54    1
58    25    55    1
59    25    56    1
60    25    57    1
@<TRIPOS>SUBSTRUCTURE
1   LIG    1    
 
########## Number      : 404
########## Name        : ZINC00001704
########## Description : AM1BCC_CHARGES =  -0.0001 ORIGINAL_CHARGES =   0.0000

@<TRIPOS>MOLECULE
ZINC00001704
19    20    1     0     0    
SMALL
USER_CHARGES
****
****
@<TRIPOS>ATOM
1     C1       1.0074   -5.2863   -1.6019 C.3     1  LIG   0.0330   0.3001 
2     N1       1.9957   -6.1743   -0.9807 N.pl3   1  LIG  -0.3450  -0.4201 
3     C2       2.3769   -7.3821   -1.6185 C.2     1  LIG   0.3473   0.5260 
4     S1       1.8650   -8.0344   -3.0682 S.2     1  LIG  -0.4258  -0.3800 
5     C3       3.3550   -8.1350   -0.8760 C.2     1  LIG   0.2101   0.1412 
6     C4       3.7967   -7.6276    0.3187 C.2     1  LIG   0.1097  -0.0256 
7     N2       4.6990   -8.5359    0.7870 N.pl3   1  LIG  -0.3212   0.0332 
8     C5       4.7637   -9.5459   -0.1376 C.2     1  LIG   0.4008   0.0365 
9     N3       3.9598   -9.3330   -1.1594 N.2     1  LIG  -0.5793  -0.5653 
10    N4       3.4474   -6.4864    0.9382 N.2     1  LIG  -0.6655  -0.5760 
11    C6       2.5529   -5.7713    0.2859 C.2     1  LIG   0.6742   0.5600 
12    N5       2.1459   -4.5895    0.8577 N.pl3   1  LIG  -0.8864  -0.8500 
13    H1       5.2199   -8.4748    1.6512 H       1  LIG   0.3173   0.2700 
14    H2       2.5366   -4.3040    1.7489 H       1  LIG   0.4319   0.4000 
15    H3       1.4655   -3.9689    0.4394 H       1  LIG   0.4131   0.4000 
16    H4       0.6289   -5.6525   -2.5562 H       1  LIG   0.1192   0.0000 
17    H5       0.1619   -5.1677   -0.9166 H       1  LIG   0.0581   0.0000 
18    H6       1.4689   -4.3070   -1.7654 H       1  LIG   0.0398   0.0000 
19    H7       5.4117  -10.4011   -0.0070 H       1  LIG   0.0686   0.1500 
@<TRIPOS>BOND
1     1     2     1
2     1     16    1
3     1     17    1
4     1     18    1
5     2     11    1
6     2     3     1
7     3     4     2
8     3     5     1
9     5     9     1
10    5     6     2
11    6     7     1
12    6     10    1
13    7     8     1
14    7     13    1
15    8     9     2
16    8     19    1
17    10    11    2
18    11    12    1
19    12    14    1
20    12    15    1
@<TRIPOS>SUBSTRUCTURE
1   LIG    1    
 
########## Number      : 405
########## Name        : ZINC00001706
########## Description : AM1BCC_CHARGES =   0.0000 ORIGINAL_CHARGES =   0.0000

@<TRIPOS>MOLECULE
ZINC00001706
17    17    1     0     0    
SMALL
USER_CHARGES
****
****
@<TRIPOS>ATOM
1     C1       7.3956  -10.4969   -0.5693 C.3     1  LIG   0.1280   0.2800 
2     O1       6.1258   -9.8455   -0.4631 O.3     1  LIG  -0.4407  -0.4300 
3     C2       5.5238   -9.5519   -1.6431 C.2     1  LIG   0.6503   0.6338 
4     O2       5.9595   -9.7888   -2.7588 O.2     1  LIG  -0.5376  -0.5700 
5     C3       4.2246   -8.8838   -1.4049 C.ar    1  LIG  -0.2552   0.0862 
6     C4       3.7228   -8.6111   -0.1309 C.ar    1  LIG  -0.0331  -0.1500 
7     C5       2.4897   -7.9782    0.0016 C.ar    1  LIG  -0.2646  -0.1500 
8     C6       1.8007   -7.6397   -1.1512 C.ar    1  LIG   0.4254   0.1600 
9     N1       2.2522   -7.8864   -2.4001 N.ar    1  LIG  -0.6717  -0.6200 
10    C7       3.4535   -8.5026   -2.4977 C.ar    1  LIG   0.4528   0.1600 
11    H1       7.7708  -10.6764    0.4417 H       1  LIG   0.0629   0.0000 
12    H2       7.2869  -11.4591   -1.0790 H       1  LIG   0.0479   0.0000 
13    H3       8.1074   -9.8564   -1.0989 H       1  LIG   0.0479   0.0000 
14    H4       4.2696   -8.8799    0.7683 H       1  LIG   0.1610   0.1500 
15    H5       2.0801   -7.7563    0.9808 H       1  LIG   0.1509   0.1500 
16    H6       0.8361   -7.1452   -1.0979 H       1  LIG   0.0279   0.1500 
17    H7       3.7791   -8.6820   -3.5182 H       1  LIG   0.0479   0.1500 
@<TRIPOS>BOND
1     1     2     1
2     1     11    1
3     1     12    1
4     1     13    1
5     2     3     1
6     3     4     2
7     3     5     1
8     5     10    ar
9     5     6     ar
10    6     7     ar
11    6     14    1
12    7     8     ar
13    7     15    1
14    8     9     ar
15    8     16    1
16    9     10    ar
17    10    17    1
@<TRIPOS>SUBSTRUCTURE
1   LIG    1    
 
########## Number      : 406
########## Name        : ZINC00001707
########## Description : AM1BCC_CHARGES =  -0.0001 ORIGINAL_CHARGES =   0.0000

@<TRIPOS>MOLECULE
ZINC00001707
20    21    1     0     0    
SMALL
USER_CHARGES
****
****
@<TRIPOS>ATOM
1     C1       1.9837   -4.1102    0.8754 C.3     1  LIG  -0.0373   0.1382 
2     C2       2.2803   -5.3306    0.0682 C.2     1  LIG  -0.2609  -0.1238 
3     C3       1.8409   -5.5271   -1.1815 C.2     1  LIG   0.0704  -0.0733 
4     O1       2.0792   -6.6243   -1.9724 O.3     1  LIG  -0.2216  -0.1592 
5     C4       2.8445   -7.6336   -1.4448 C.ar    1  LIG   0.1373   0.0825 
6     C5       3.0821   -8.7446   -2.2543 C.ar    1  LIG  -0.1581  -0.1500 
7     C6       3.8536   -9.8022   -1.7713 C.ar    1  LIG  -0.0780  -0.1500 
8     C7       4.3863   -9.7493   -0.4822 C.ar    1  LIG  -0.1657  -0.1500 
9     C8       4.1501   -8.6390    0.3295 C.ar    1  LIG  -0.0470  -0.1500 
10    C9       3.3771   -7.5813   -0.1567 C.ar    1  LIG  -0.2158   0.0862 
11    C10      3.1124   -6.3967    0.6802 C.2     1  LIG   0.5911   0.4694 
12    O2       3.5572   -6.3031    1.8167 O.2     1  LIG  -0.5423  -0.5700 
13    H1       1.3641   -3.3969    0.3216 H       1  LIG   0.0343   0.0000 
14    H2       1.4461   -4.3778    1.7909 H       1  LIG   0.0583   0.0000 
15    H3       2.9116   -3.5999    1.1533 H       1  LIG   0.0589   0.0000 
16    H4       1.2288   -4.8140   -1.7184 H       1  LIG   0.1796   0.1500 
17    H5       2.6706   -8.7927   -3.2588 H       1  LIG   0.1545   0.1500 
18    H6       4.0401  -10.6686   -2.3997 H       1  LIG   0.1399   0.1500 
19    H7       4.9866  -10.5749   -0.1099 H       1  LIG   0.1416   0.1500 
20    H8       4.5719   -8.6133    1.3305 H       1  LIG   0.1607   0.1500 
@<TRIPOS>BOND
1     1     2     1
2     1     13    1
3     1     14    1
4     1     15    1
5     2     11    1
6     2     3     2
7     3     4     1
8     3     16    1
9     4     5     1
10    5     10    ar
11    5     6     ar
12    6     7     ar
13    6     17    1
14    7     8     ar
15    7     18    1
16    8     9     ar
17    8     19    1
18    9     10    ar
19    9     20    1
20    10    11    1
21    11    12    2
@<TRIPOS>SUBSTRUCTURE
1   LIG    1    
 
########## Number      : 407
########## Name        : ZINC00001712
########## Description : AM1BCC_CHARGES =  -0.0001 ORIGINAL_CHARGES =   0.0000

@<TRIPOS>MOLECULE
ZINC00001712
19    19    1     0     0    
SMALL
USER_CHARGES
****
****
@<TRIPOS>ATOM
1     C1       6.6232   -9.3612   -0.9043 C.3     1  LIG   0.1286   0.2800 
2     O1       5.6549   -8.3077   -0.8859 O.3     1  LIG  -0.4426  -0.4300 
3     C2       4.8865   -8.2054   -2.0000 C.2     1  LIG   0.6496   0.6338 
4     O2       4.9507   -8.9179   -2.9897 O.2     1  LIG  -0.5466  -0.5700 
5     C3       3.9240   -7.0822   -1.8648 C.ar    1  LIG  -0.1740   0.0862 
6     C4       3.8666   -6.2758   -0.7194 C.ar    1  LIG  -0.0284  -0.1500 
7     C5       2.9423   -5.2311   -0.6416 C.ar    1  LIG  -0.2352  -0.1500 
8     C6       2.0780   -4.9945   -1.7078 C.ar    1  LIG   0.1589   0.0825 
9     C7       2.1245   -5.7873   -2.8503 C.ar    1  LIG  -0.1753  -0.1500 
10    C8       3.0474   -6.8316   -2.9297 C.ar    1  LIG  -0.0390  -0.1500 
11    O3       1.1632   -3.9811   -1.6625 O.3     1  LIG  -0.4904  -0.5325 
12    H1       1.2511   -3.5214   -0.8101 H       1  LIG   0.4245   0.4500 
13    H2       7.1709   -9.3355    0.0416 H       1  LIG   0.0606   0.0000 
14    H3       6.1262  -10.3318   -0.9953 H       1  LIG   0.0464   0.0000 
15    H4       7.3321   -9.2107   -1.7241 H       1  LIG   0.0461   0.0000 
16    H5       4.5297   -6.4397    0.1258 H       1  LIG   0.1567   0.1500 
17    H6       2.9084   -4.6139    0.2517 H       1  LIG   0.1405   0.1500 
18    H7       1.4484   -5.5991   -3.6796 H       1  LIG   0.1585   0.1500 
19    H8       3.0701   -7.4412   -3.8298 H       1  LIG   0.1610   0.1500 
@<TRIPOS>BOND
1     1     2     1
2     1     13    1
3     1     14    1
4     1     15    1
5     2     3     1
6     3     4     2
7     3     5     1
8     5     10    ar
9     5     6     ar
10    6     7     ar
11    6     16    1
12    7     8     ar
13    7     17    1
14    8     9     ar
15    8     11    1
16    9     10    ar
17    9     18    1
18    10    19    1
19    11    12    1
@<TRIPOS>SUBSTRUCTURE
1   LIG    1    
 
########## Number      : 408
########## Name        : ZINC00001715
########## Description : AM1BCC_CHARGES =  -0.0000 ORIGINAL_CHARGES =  -0.0000

@<TRIPOS>MOLECULE
ZINC00001715
15    15    1     0     0    
SMALL
USER_CHARGES
****
****
@<TRIPOS>ATOM
1     C1       7.1319   -8.5232   -1.3177 C.3     1  LIG  -0.0795   0.1382 
2     C2       5.7270   -8.9501   -1.0269 C.2     1  LIG   0.0896  -0.0292 
3     C3       5.3371  -10.2323   -1.0438 C.2     1  LIG  -0.3078  -0.1356 
4     C4       3.9264  -10.5774   -0.7448 C.2     1  LIG   0.7035   0.6156 
5     O1       3.5492  -11.7450   -0.7550 O.2     1  LIG  -0.5982  -0.5700 
6     N1       3.1057   -9.4999   -0.4636 N.am    1  LIG  -0.5413  -0.4900 
7     C5       3.5075   -8.1786   -0.4462 C.2     1  LIG   0.5513   0.5000 
8     S1       2.4471   -6.9380   -0.0957 S.2     1  LIG  -0.5011  -0.3800 
9     N2       4.8323   -7.9466   -0.7348 N.pl3   1  LIG  -0.4288  -0.5390 
10    H1       2.1331   -9.6993   -0.2542 H       1  LIG   0.3639   0.3700 
11    H2       5.1669   -6.9874   -0.7321 H       1  LIG   0.3629   0.3700 
12    H3       7.7812   -9.3766   -1.5402 H       1  LIG   0.0727   0.0000 
13    H4       7.1564   -7.8514   -2.1823 H       1  LIG   0.0664   0.0000 
14    H5       7.5574   -7.9961   -0.4572 H       1  LIG   0.0665   0.0000 
15    H6       6.0153  -11.0466   -1.2697 H       1  LIG   0.1799   0.1500 
@<TRIPOS>BOND
1     1     2     1
2     1     12    1
3     1     13    1
4     1     14    1
5     2     9     1
6     2     3     2
7     3     4     1
8     3     15    1
9     4     5     2
10    4     6     am
11    6     7     1
12    6     10    1
13    7     8     2
14    7     9     1
15    9     11    1
@<TRIPOS>SUBSTRUCTURE
1   LIG    1    
 
########## Number      : 409
########## Name        : ZINC00001723
########## Description : AM1BCC_CHARGES =  -0.0001 ORIGINAL_CHARGES =   0.0000

@<TRIPOS>MOLECULE
ZINC00001723
27    28    1     0     0    
SMALL
USER_CHARGES
****
****
@<TRIPOS>ATOM
1     C1       6.3888   -5.6629    1.2816 C.3     1  LIG  -0.1584   0.1435 
2     C2       5.2931   -6.4083    0.5733 C.ar    1  LIG   0.5313   0.1665 
3     C3       4.1319   -5.7698    0.1313 C.ar    1  LIG  -0.4196   0.0000 
4     C4       3.2022   -6.5916   -0.5144 C.ar    1  LIG   0.7309   0.4100 
5     N1       3.4058   -7.9201   -0.6720 N.ar    1  LIG  -0.8240  -0.6200 
6     C5       4.5564   -8.4491   -0.2154 C.ar    1  LIG   0.9114   0.7200 
7     N2       5.5123   -7.7324    0.4020 N.ar    1  LIG  -0.7866  -0.6200 
8     N3       4.7661   -9.8034   -0.3888 N.pl3   1  LIG  -0.9318  -0.9000 
9     N4       1.9871   -6.0809   -0.9655 N.pl3   1  LIG  -0.9465  -0.9000 
10    C6       3.9021   -4.3328    0.3336 C.ar    1  LIG  -0.0038   0.0000 
11    C7       3.1832   -3.8731    1.4469 C.ar    1  LIG  -0.1107  -0.1500 
12    C8       2.9619   -2.5078    1.6394 C.ar    1  LIG  -0.1220  -0.1500 
13    C9       3.4556   -1.5801    0.7199 C.ar    1  LIG   0.0160   0.1770 
14    C10      4.1721   -2.0226   -0.3958 C.ar    1  LIG   0.0127   0.1770 
15    C11      4.3921   -3.3917   -0.5864 C.ar    1  LIG  -0.1169  -0.1500 
16    Cl1      4.8105   -0.9307   -1.5734 Cl      1  LIG  -0.0697  -0.1770 
17    Cl2      3.1486    0.0943    1.0150 Cl      1  LIG  -0.0684  -0.1770 
18    H1       4.0615  -10.3613   -0.8483 H       1  LIG   0.4290   0.4000 
19    H2       5.6214  -10.2212   -0.0530 H       1  LIG   0.4308   0.4000 
20    H3       1.9383   -5.1177   -1.2706 H       1  LIG   0.4259   0.4000 
21    H4       1.3561   -6.7408   -1.4031 H       1  LIG   0.4285   0.4000 
22    H5       6.0095   -5.1986    2.1972 H       1  LIG   0.0575   0.0000 
23    H6       7.1989   -6.3429    1.5661 H       1  LIG   0.0662   0.0000 
24    H7       6.8148   -4.8943    0.6295 H       1  LIG   0.0587   0.0000 
25    H8       2.7888   -4.5786    2.1757 H       1  LIG   0.1501   0.1500 
26    H9       2.4016   -2.1819    2.5125 H       1  LIG   0.1527   0.1500 
27    H10      4.9500   -3.7339   -1.4569 H       1  LIG   0.1566   0.1500 
@<TRIPOS>BOND
1     1     2     1
2     1     22    1
3     1     23    1
4     1     24    1
5     2     7     ar
6     2     3     ar
7     3     4     ar
8     3     10    1
9     4     5     ar
10    4     9     1
11    5     6     ar
12    6     7     ar
13    6     8     1
14    8     18    1
15    8     19    1
16    9     20    1
17    9     21    1
18    10    15    ar
19    10    11    ar
20    11    12    ar
21    11    25    1
22    12    13    ar
23    12    26    1
24    13    14    ar
25    13    17    1
26    14    15    ar
27    14    16    1
28    15    27    1
@<TRIPOS>SUBSTRUCTURE
1   LIG    1    
 
########## Number      : 410
########## Name        : ZINC00001727
########## Description : AM1BCC_CHARGES =  -0.0001 ORIGINAL_CHARGES =  -0.0000

@<TRIPOS>MOLECULE
ZINC00001727
45    48    1     0     0    
SMALL
USER_CHARGES
****
****
@<TRIPOS>ATOM
1     C1       1.6323    7.2789    2.8170 C.3     1  LIG  -0.1159   0.0000 
2     C2       0.8364    7.6497    4.0632 C.3     1  LIG   0.1583   0.2800 
3     C3      -0.1385    6.5157    4.5135 C.3     1  LIG  -0.0729   0.0000 
4     C4      -0.2614    6.6052    6.0623 C.3     1  LIG  -0.0691   0.0000 
5     C5       0.5189    7.8700    6.4027 C.3     1  LIG  -0.0645   0.0000 
6     C6       1.6401    7.9010    5.3657 C.3     1  LIG  -0.0584   0.1382 
7     C7       2.3568    9.2206    5.4640 C.2     1  LIG  -0.1395  -0.2882 
8     C8       2.3874    9.9158    6.6177 C.2     1  LIG  -0.1315  -0.1500 
9     C9       1.7099    9.4972    7.8600 C.2     1  LIG  -0.0387  -0.1382 
10    C10      1.6287   10.2820    8.9664 C.2     1  LIG  -0.0916  -0.1382 
11    C11      2.2609   11.6558    9.1088 C.3     1  LIG  -0.0349   0.1382 
12    C12      1.3467   12.6560    9.8035 C.3     1  LIG  -0.1797   0.0610 
13    C13      0.8559   12.1029   11.1149 C.2     1  LIG   0.5686   0.4946 
14    O1       0.6069   12.8238   12.0780 O.2     1  LIG  -0.5362  -0.5700 
15    C14      0.5887   10.6483   11.1878 C.2     1  LIG  -0.2573  -0.1356 
16    C15      0.9156    9.8294   10.1738 C.2     1  LIG   0.0020  -0.1382 
17    C16      0.5091    8.3791   10.2322 C.3     1  LIG  -0.0548   0.1382 
18    C17     -0.0303    7.9392    8.8780 C.3     1  LIG  -0.0720   0.0000 
19    C18      1.0695    8.0955    7.8139 C.3     1  LIG  -0.0194   0.1382 
20    C19      2.7309    6.8109    5.5634 C.3     1  LIG  -0.0799   0.0000 
21    O2       0.0498    8.8048    3.7459 O.3     1  LIG  -0.5943  -0.6800 
22    H1       0.6524    9.5107    3.4570 H       1  LIG   0.3999   0.4000 
23    H2       2.1661    6.3304    2.9269 H       1  LIG   0.0464   0.0000 
24    H3       0.9655    7.1883    1.9517 H       1  LIG   0.0532   0.0000 
25    H4       2.3584    8.0604    2.5688 H       1  LIG   0.0345   0.0000 
26    H5      -1.1252    6.6351    4.0519 H       1  LIG   0.0688   0.0000 
27    H6       0.2424    5.5235    4.2460 H       1  LIG   0.0476   0.0000 
28    H7      -1.3086    6.6683    6.3750 H       1  LIG   0.0493   0.0000 
29    H8       0.1764    5.7180    6.5325 H       1  LIG   0.0408   0.0000 
30    H9      -0.2223    8.6833    6.2713 H       1  LIG   0.0716   0.0000 
31    H10      2.9057    9.5892    4.6023 H       1  LIG   0.1263   0.1500 
32    H11      2.9507   10.8419    6.6124 H       1  LIG   0.1282   0.1500 
33    H12      3.1848   11.5437    9.6928 H       1  LIG   0.0580   0.0000 
34    H13      2.5484   12.0963    8.1518 H       1  LIG   0.0525   0.0000 
35    H14      1.9011   13.5806    9.9980 H       1  LIG   0.0730   0.0000 
36    H15      0.4768   12.8972    9.1823 H       1  LIG   0.0748   0.0000 
37    H16      0.0739   10.2930   12.0739 H       1  LIG   0.1498   0.1500 
38    H17      1.3762    7.7674   10.5122 H       1  LIG   0.0600   0.0000 
39    H18     -0.2614    8.2103   10.9942 H       1  LIG   0.0565   0.0000 
40    H19     -0.3503    6.8920    8.9351 H       1  LIG   0.0491   0.0000 
41    H20     -0.9171    8.5308    8.6138 H       1  LIG   0.0546   0.0000 
42    H21      1.8097    7.3181    8.0635 H       1  LIG   0.0644   0.0000 
43    H22      3.2661    6.9246    6.5124 H       1  LIG   0.0418   0.0000 
44    H23      2.3215    5.7963    5.5431 H       1  LIG   0.0421   0.0000 
45    H24      3.4948    6.8701    4.7785 H       1  LIG   0.0384   0.0000 
@<TRIPOS>BOND
1     1     2     1
2     1     23    1
3     1     24    1
4     1     25    1
5     2     6     1
6     2     3     1
7     2     21    1
8     3     4     1
9     3     26    1
10    3     27    1
11    4     5     1
12    4     28    1
13    4     29    1
14    5     19    1
15    5     6     1
16    5     30    1
17    6     7     1
18    6     20    1
19    7     8     2
20    7     31    1
21    8     9     1
22    8     32    1
23    9     19    1
24    9     10    2
25    10    16    1
26    10    11    1
27    11    12    1
28    11    33    1
29    11    34    1
30    12    13    1
31    12    35    1
32    12    36    1
33    13    14    2
34    13    15    1
35    15    16    2
36    15    37    1
37    16    17    1
38    17    18    1
39    17    38    1
40    17    39    1
41    18    19    1
42    18    40    1
43    18    41    1
44    19    42    1
45    20    43    1
46    20    44    1
47    20    45    1
48    21    22    1
@<TRIPOS>SUBSTRUCTURE
1   LIG    1    
 
########## Number      : 411
########## Name        : ZINC00001728
########## Description : AM1BCC_CHARGES =  -0.0001 ORIGINAL_CHARGES =   0.0000

@<TRIPOS>MOLECULE
ZINC00001728
31    32    1     0     0    
SMALL
USER_CHARGES
****
****
@<TRIPOS>ATOM
1     C1       2.4717   -4.8845    3.1419 C.3     1  LIG  -0.0823   0.0000 
2     C2       3.5554   -4.8846    2.0307 C.3     1  LIG  -0.0874   0.2045 
3     C3       4.8846   -5.2570    2.7235 C.3     1  LIG  -0.0899   0.0000 
4     C4       3.0797   -5.8643    0.9571 C.ar    1  LIG  -0.1909  -0.1435 
5     C5       1.9640   -5.5697    0.1566 C.ar    1  LIG  -0.0878  -0.1500 
6     C6       1.5276   -6.4642   -0.8163 C.ar    1  LIG  -0.2398  -0.1500 
7     C7       2.2200   -7.6511   -0.9622 C.ar    1  LIG   0.3933   0.1600 
8     N1       3.2892   -7.9926   -0.2146 N.ar    1  LIG  -0.6624  -0.6200 
9     C8       3.6860   -7.0984    0.7231 C.ar    1  LIG   0.3917   0.1600 
10    C9       3.7054   -3.4354    1.5030 C.2     1  LIG   0.5864   0.4228 
11    O1       3.3610   -2.4702    2.1893 O.2     1  LIG  -0.5281  -0.5700 
12    C10      4.2960   -3.1312    0.1665 C.ar    1  LIG  -0.2869   0.0862 
13    C11      5.1882   -3.9620   -0.5075 C.ar    1  LIG  -0.0474  -0.1500 
14    C12      5.6813   -3.5827   -1.7543 C.ar    1  LIG  -0.2602  -0.1500 
15    C13      5.2660   -2.3734   -2.2843 C.ar    1  LIG   0.4196   0.1600 
16    N2       4.4107   -1.5353   -1.6627 N.ar    1  LIG  -0.6714  -0.6200 
17    C14      3.9493   -1.9326   -0.4535 C.ar    1  LIG   0.4436   0.1600 
18    H1       1.5135   -4.4940    2.7786 H       1  LIG   0.0447   0.0000 
19    H2       2.2934   -5.8961    3.5265 H       1  LIG   0.0444   0.0000 
20    H3       2.7680   -4.2570    3.9913 H       1  LIG   0.0591   0.0000 
21    H4       5.7117   -5.3713    2.0174 H       1  LIG   0.0397   0.0000 
22    H5       5.1858   -4.4810    3.4379 H       1  LIG   0.0553   0.0000 
23    H6       4.7983   -6.1966    3.2820 H       1  LIG   0.0494   0.0000 
24    H7       1.4226   -4.6350    0.2837 H       1  LIG   0.1439   0.1500 
25    H8       0.6698   -6.2367   -1.4387 H       1  LIG   0.1470   0.1500 
26    H9       1.9219   -8.3829   -1.7058 H       1  LIG   0.0246   0.1500 
27    H10      4.5453   -7.4332    1.2951 H       1  LIG   0.0242   0.1500 
28    H11      5.5281   -4.9038   -0.0950 H       1  LIG   0.1481   0.1500 
29    H12      6.3752   -4.2177   -2.2941 H       1  LIG   0.1496   0.1500 
30    H13      5.6238   -2.0366   -3.2517 H       1  LIG   0.0264   0.1500 
31    H14      3.2609   -1.2298    0.0074 H       1  LIG   0.0434   0.1500 
@<TRIPOS>BOND
1     1     2     1
2     1     18    1
3     1     19    1
4     1     20    1
5     2     3     1
6     2     4     1
7     2     10    1
8     3     21    1
9     3     22    1
10    3     23    1
11    4     9     ar
12    4     5     ar
13    5     6     ar
14    5     24    1
15    6     7     ar
16    6     25    1
17    7     8     ar
18    7     26    1
19    8     9     ar
20    9     27    1
21    10    11    2
22    10    12    1
23    12    17    ar
24    12    13    ar
25    13    14    ar
26    13    28    1
27    14    15    ar
28    14    29    1
29    15    16    ar
30    15    30    1
31    16    17    ar
32    17    31    1
@<TRIPOS>SUBSTRUCTURE
1   LIG    1    
 
########## Number      : 412
########## Name        : ZINC00001732
########## Description : AM1BCC_CHARGES =  -0.0001 ORIGINAL_CHARGES =   0.0000

@<TRIPOS>MOLECULE
ZINC00001732
36    39    1     0     0    
SMALL
USER_CHARGES
****
****
@<TRIPOS>ATOM
1     C1      -0.6201    3.3747    5.1970 C.3     1  LIG  -0.1273   0.1800 
2     C2      -1.6039    4.1759    4.4209 C.2     1  LIG   0.4231   0.0065 
3     N1      -2.2890    5.1767    4.9427 N.2     1  LIG  -0.6607  -0.5653 
4     C3      -2.9631    5.7485    3.9057 C.2     1  LIG   0.3205   0.0772 
5     C4      -2.7053    5.0904    2.7278 C.2     1  LIG  -0.2209  -0.3316 
6     N2      -1.8488    4.0554    3.0550 N.pl3   1  LIG  -0.1426   0.3262 
7     C5      -1.3950    3.0712    2.1358 C.ar    1  LIG   0.0384  -0.0230 
8     C6      -1.2347    1.7481    2.5750 C.ar    1  LIG  -0.1445  -0.1500 
9     C7      -0.8625    0.7413    1.6819 C.ar    1  LIG  -0.0982  -0.1500 
10    C8      -0.6589    1.0475    0.3412 C.ar    1  LIG   0.0028   0.1770 
11    C9      -0.8123    2.3554   -0.1149 C.ar    1  LIG  -0.0829  -0.1500 
12    C10     -1.1684    3.3810    0.7787 C.ar    1  LIG  -0.1800   0.0862 
13    C11     -1.1998    4.7762    0.2303 C.2     1  LIG   0.5272   0.2776 
14    N3      -2.1139    5.6536    0.4754 N.2     1  LIG  -0.5578  -0.6960 
15    C12     -3.2173    5.3082    1.3558 C.3     1  LIG   0.1803   0.4260 
16    C13     -0.0792    5.2066   -0.6533 C.ar    1  LIG  -0.1780   0.0862 
17    C14      1.2460    4.9578   -0.2789 C.ar    1  LIG  -0.0840  -0.1500 
18    C15      2.2900    5.3799   -1.1045 C.ar    1  LIG  -0.1496  -0.1500 
19    C16      2.0159    6.0526   -2.2966 C.ar    1  LIG  -0.0924  -0.1500 
20    C17      0.6966    6.3083   -2.6673 C.ar    1  LIG  -0.1750  -0.1500 
21    C18     -0.3444    5.8877   -1.8437 C.ar    1  LIG   0.1649   0.1900 
22    F1      -1.6065    6.1278   -2.2288 F       1  LIG  -0.1254  -0.1900 
23    Cl1     -0.2148   -0.1971   -0.7626 Cl      1  LIG  -0.0767  -0.1770 
24    H1      -0.2662    3.9527    6.0576 H       1  LIG   0.0760   0.0000 
25    H2      -1.0826    2.4623    5.5837 H       1  LIG   0.0558   0.0000 
26    H3       0.2591    3.1160    4.6001 H       1  LIG   0.0522   0.0000 
27    H4      -3.6056    6.6043    4.0562 H       1  LIG   0.0483   0.1500 
28    H5      -1.4479    1.4520    3.5973 H       1  LIG   0.1540   0.1500 
29    H6      -0.7561   -0.2783    2.0432 H       1  LIG   0.1556   0.1500 
30    H7      -0.6500    2.5721   -1.1687 H       1  LIG   0.1643   0.1500 
31    H8      -3.7708    4.4361    0.9865 H       1  LIG   0.0649   0.0000 
32    H9      -3.9299    6.1410    1.3552 H       1  LIG   0.0907   0.0000 
33    H10      1.4827    4.4509    0.6527 H       1  LIG   0.1442   0.1500 
34    H11      3.3199    5.1882   -0.8159 H       1  LIG   0.1407   0.1500 
35    H12      2.8322    6.3792   -2.9350 H       1  LIG   0.1401   0.1500 
36    H13      0.4799    6.8308   -3.5940 H       1  LIG   0.1519   0.1500 
@<TRIPOS>BOND
1     1     2     1
2     1     24    1
3     1     25    1
4     1     26    1
5     2     6     1
6     2     3     2
7     3     4     1
8     4     5     2
9     4     27    1
10    5     15    1
11    5     6     1
12    6     7     1
13    7     12    ar
14    7     8     ar
15    8     9     ar
16    8     28    1
17    9     10    ar
18    9     29    1
19    10    11    ar
20    10    23    1
21    11    12    ar
22    11    30    1
23    12    13    1
24    13    14    2
25    13    16    1
26    14    15    1
27    15    31    1
28    15    32    1
29    16    21    ar
30    16    17    ar
31    17    18    ar
32    17    33    1
33    18    19    ar
34    18    34    1
35    19    20    ar
36    19    35    1
37    20    21    ar
38    20    36    1
39    21    22    1
@<TRIPOS>SUBSTRUCTURE
1   LIG    1    
 
########## Number      : 413
########## Name        : ZINC00001737
########## Description : AM1BCC_CHARGES =  -0.0001 ORIGINAL_CHARGES =   0.0000

@<TRIPOS>MOLECULE
ZINC00001737
39    40    1     0     0    
SMALL
USER_CHARGES
****
****
@<TRIPOS>ATOM
1     C1       3.2020   -1.9599    1.4221 C.3     1  LIG  -0.0544   0.1435 
2     C2       4.0664   -3.1750    1.6007 C.ar    1  LIG  -0.0771  -0.1435 
3     C3       5.3810   -3.0196    2.0471 C.ar    1  LIG  -0.1573  -0.1500 
4     C4       6.2385   -4.1206    2.2405 C.ar    1  LIG   0.1097   0.1000 
5     C5       5.7619   -5.4308    1.9438 C.ar    1  LIG  -0.0197   0.0000 
6     C6       6.5847   -6.5791    2.0372 C.ar    1  LIG  -0.1076  -0.1500 
7     C7       6.1117   -7.8557    1.7337 C.ar    1  LIG  -0.1313  -0.1500 
8     C8       4.8012   -8.0219    1.3173 C.ar    1  LIG  -0.1245  -0.1500 
9     C9       3.9683   -6.9106    1.2026 C.ar    1  LIG  -0.1140  -0.1500 
10    C10      4.4217   -5.6071    1.5090 C.ar    1  LIG  -0.0378   0.0000 
11    C11      3.5849   -4.4728    1.3849 C.ar    1  LIG   0.0932   0.0825 
12    O1       2.2828   -4.6320    0.9619 O.3     1  LIG  -0.3446  -0.3625 
13    C12      1.4108   -4.7846    2.0846 C.3     1  LIG   0.1150   0.2800 
14    N1       7.5426   -3.9139    2.7278 N.pl3   1  LIG  -0.6405  -0.8382 
15    C13      8.3564   -2.8888    2.0627 C.3     1  LIG   0.1679   0.3691 
16    C14      9.8379   -3.2488    2.0910 C.3     1  LIG   0.0313   0.2900 
17    Cl1     10.7808   -2.0747    1.1415 Cl      1  LIG  -0.1890  -0.2900 
18    C15      7.7485   -4.2218    4.1517 C.3     1  LIG   0.1702   0.3691 
19    C16      7.3347   -3.0654    5.0567 C.3     1  LIG  -0.0068   0.2900 
20    Cl2      7.6084   -3.4876    6.7643 Cl      1  LIG  -0.1815  -0.2900 
21    H1       3.8097   -1.0756    1.2010 H       1  LIG   0.0453   0.0000 
22    H2       2.5107   -2.0855    0.5826 H       1  LIG   0.0616   0.0000 
23    H3       2.6293   -1.7676    2.3343 H       1  LIG   0.0437   0.0000 
24    H4       5.7431   -2.0162    2.2663 H       1  LIG   0.1351   0.1500 
25    H5       7.6253   -6.4899    2.3434 H       1  LIG   0.1465   0.1500 
26    H6       6.7716   -8.7142    1.8180 H       1  LIG   0.1335   0.1500 
27    H7       4.4255   -9.0113    1.0742 H       1  LIG   0.1344   0.1500 
28    H8       2.9485   -7.0748    0.8595 H       1  LIG   0.1459   0.1500 
29    H9       0.3974   -4.9356    1.7009 H       1  LIG   0.0619   0.0000 
30    H10      1.6789   -5.6601    2.6855 H       1  LIG   0.0315   0.0000 
31    H11      1.4048   -3.8866    2.7106 H       1  LIG   0.0291   0.0000 
32    H12      8.0495   -2.8016    1.0114 H       1  LIG   0.0766   0.0000 
33    H13      8.1919   -1.9092    2.5272 H       1  LIG   0.0291   0.0000 
34    H14     10.2386   -3.2337    3.1081 H       1  LIG   0.0648   0.0000 
35    H15     10.0127   -4.2419    1.6655 H       1  LIG   0.0811   0.0000 
36    H16      7.1936   -5.1250    4.4361 H       1  LIG   0.0771   0.0000 
37    H17      8.8038   -4.4650    4.3196 H       1  LIG   0.0629   0.0000 
38    H18      7.9150   -2.1624    4.8475 H       1  LIG   0.0651   0.0000 
39    H19      6.2736   -2.8252    4.9443 H       1  LIG   0.0735   0.0000 
@<TRIPOS>BOND
1     1     2     1
2     1     21    1
3     1     22    1
4     1     23    1
5     2     11    ar
6     2     3     ar
7     3     4     ar
8     3     24    1
9     4     5     ar
10    4     14    1
11    5     10    ar
12    5     6     ar
13    6     7     ar
14    6     25    1
15    7     8     ar
16    7     26    1
17    8     9     ar
18    8     27    1
19    9     10    ar
20    9     28    1
21    10    11    ar
22    11    12    1
23    12    13    1
24    13    29    1
25    13    30    1
26    13    31    1
27    14    15    1
28    14    18    1
29    15    16    1
30    15    32    1
31    15    33    1
32    16    17    1
33    16    34    1
34    16    35    1
35    18    19    1
36    18    36    1
37    18    37    1
38    19    20    1
39    19    38    1
40    19    39    1
@<TRIPOS>SUBSTRUCTURE
1   LIG    1    
 
########## Number      : 414
########## Name        : ZINC00001738
########## Description : AM1BCC_CHARGES =   0.0003 ORIGINAL_CHARGES =   0.0000

@<TRIPOS>MOLECULE
ZINC00001738
36    40    1     0     0    
SMALL
USER_CHARGES
****
****
@<TRIPOS>ATOM
1     C1       3.1885    2.7110   -8.8142 C.ar    1  LIG  -0.1175  -0.1500 
2     C2       2.0966    1.8721   -9.0144 C.ar    1  LIG  -0.1261  -0.1500 
3     C3       1.1094    1.7685   -8.0347 C.ar    1  LIG  -0.1188  -0.1500 
4     C4       1.1986    2.5090   -6.8453 C.ar    1  LIG  -0.1039  -0.1435 
5     C5       2.3027    3.3565   -6.6442 C.ar    1  LIG  -0.0622  -0.1435 
6     C6       3.2936    3.4467   -7.6345 C.ar    1  LIG  -0.1227  -0.1500 
7     C7       2.4655    4.1556   -5.3740 C.3     1  LIG   0.0159   0.3235 
8     C8       1.2555    4.1638   -4.5037 C.2     1  LIG  -0.0137  -0.3316 
9     C9       0.9375    4.9132   -3.3864 C.2     1  LIG  -0.2183  -0.0860 
10    C10     -0.3473    4.5112   -2.9496 C.2     1  LIG  -0.2103  -0.0860 
11    C11     -0.7885    3.5236   -3.7999 C.2     1  LIG  -0.0682  -0.3016 
12    N1       0.1939    3.3225   -4.7362 N.pl3   1  LIG  -0.0592   0.0476 
13    C12      0.1194    2.3415   -5.8091 C.3     1  LIG   0.0834   0.3991 
14    C13     -1.0118    5.0810   -1.8025 C.2     1  LIG   0.6180   0.5698 
15    O1      -2.1223    4.7304   -1.4271 O.2     1  LIG  -0.5445  -0.5700 
16    C14     -0.2387    6.1455   -1.0931 C.ar    1  LIG  -0.1221   0.0862 
17    C15     -0.8159    6.7512    0.0298 C.ar    1  LIG  -0.0932  -0.1500 
18    C16     -0.1248    7.7487    0.7187 C.ar    1  LIG  -0.1206  -0.1500 
19    C17      1.1417    8.1469    0.2936 C.ar    1  LIG  -0.1208  -0.1500 
20    C18      1.7276    7.5510   -0.8240 C.ar    1  LIG  -0.0934  -0.1500 
21    C19      1.0448    6.5488   -1.5243 C.ar    1  LIG  -0.1208   0.0862 
22    C20      1.7087    5.9360   -2.7164 C.2     1  LIG   0.6201   0.5698 
23    O2       2.8233    6.2873   -3.0798 O.2     1  LIG  -0.5537  -0.5700 
24    H1       3.9603    2.7904   -9.5744 H       1  LIG   0.1378   0.1500 
25    H2       2.0147    1.2954   -9.9311 H       1  LIG   0.1375   0.1500 
26    H3       0.2658    1.1029   -8.2028 H       1  LIG   0.1340   0.1500 
27    H4       4.1554    4.0937   -7.4883 H       1  LIG   0.1410   0.1500 
28    H5       3.3084    3.7428   -4.8063 H       1  LIG   0.0877   0.0000 
29    H6       2.7105    5.1907   -5.6429 H       1  LIG   0.0968   0.0000 
30    H7      -1.7068    2.9512   -3.8170 H       1  LIG   0.1874   0.1500 
31    H8      -0.8675    2.4562   -6.2721 H       1  LIG   0.0697   0.0000 
32    H9       0.1986    1.3549   -5.3393 H       1  LIG   0.0680   0.0000 
33    H10     -1.8020    6.4588    0.3819 H       1  LIG   0.1585   0.1500 
34    H11     -0.5755    8.2167    1.5897 H       1  LIG   0.1384   0.1500 
35    H12      1.6747    8.9243    0.8344 H       1  LIG   0.1382   0.1500 
36    H13      2.7163    7.8801   -1.1343 H       1  LIG   0.1579   0.1500 
@<TRIPOS>BOND
1     1     6     ar
2     1     2     ar
3     1     24    1
4     2     3     ar
5     2     25    1
6     3     4     ar
7     3     26    1
8     4     13    1
9     4     5     ar
10    5     6     ar
11    5     7     1
12    6     27    1
13    7     8     1
14    7     28    1
15    7     29    1
16    8     12    1
17    8     9     2
18    9     22    1
19    9     10    1
20    10    11    2
21    10    14    1
22    11    12    1
23    11    30    1
24    12    13    1
25    13    31    1
26    13    32    1
27    14    15    2
28    14    16    1
29    16    21    ar
30    16    17    ar
31    17    18    ar
32    17    33    1
33    18    19    ar
34    18    34    1
35    19    20    ar
36    19    35    1
37    20    21    ar
38    20    36    1
39    21    22    1
40    22    23    2
@<TRIPOS>SUBSTRUCTURE
1   LIG    1    
 
########## Number      : 415
########## Name        : ZINC00001742
########## Description : AM1BCC_CHARGES =   0.0000 ORIGINAL_CHARGES =   0.0000

@<TRIPOS>MOLECULE
ZINC00001742
28    29    1     0     0    
SMALL
USER_CHARGES
****
****
@<TRIPOS>ATOM
1     C1       3.7896   -5.2589   -1.4481 C.3     1  LIG  -0.1413   0.1435 
2     C2       3.1743   -6.4425   -0.7618 C.ar    1  LIG   0.3170   0.1665 
3     C3       1.8721   -6.4268   -0.2412 C.ar    1  LIG   0.4804   0.4100 
4     N1       1.4141   -7.5140    0.4345 N.ar    1  LIG  -0.6698  -0.6200 
5     C4       2.2250   -8.5839    0.5416 C.ar    1  LIG   0.2916   0.1600 
6     C5       3.4845   -8.5950    0.0002 C.ar    1  LIG   0.2706   0.1600 
7     N2       3.9792   -7.5315   -0.6550 N.ar    1  LIG  -0.6343  -0.6200 
8     N3       1.0447   -5.3020   -0.3843 N.pl3   1  LIG  -0.7181  -0.8382 
9     C6       0.4850   -5.1069   -1.7267 C.3     1  LIG   0.1740   0.3691 
10    C7      -0.0582   -3.6847   -1.8562 C.3     1  LIG  -0.0777   0.0000 
11    C8      -1.0513   -3.3658   -0.7411 C.3     1  LIG  -0.0793   0.0000 
12    C9      -0.4278   -3.6279    0.6275 C.3     1  LIG  -0.0798   0.0000 
13    C10      0.1213   -5.0507    0.7265 C.3     1  LIG   0.1759   0.3691 
14    H1       4.8824   -5.3345   -1.4321 H       1  LIG   0.0599   0.0000 
15    H2       3.4733   -5.2151   -2.4936 H       1  LIG   0.0483   0.0000 
16    H3       3.5232   -4.3245   -0.9446 H       1  LIG   0.0668   0.0000 
17    H4       1.8229   -9.4343    1.0781 H       1  LIG   0.0312   0.1500 
18    H5       4.1377   -9.4547    0.0801 H       1  LIG   0.0330   0.1500 
19    H6       1.2291   -5.2663   -2.5133 H       1  LIG   0.0517   0.0000 
20    H7      -0.3216   -5.8316   -1.8984 H       1  LIG   0.0281   0.0000 
21    H8       0.7741   -2.9709   -1.8133 H       1  LIG   0.0515   0.0000 
22    H9      -0.5418   -3.5591   -2.8312 H       1  LIG   0.0453   0.0000 
23    H10     -1.3672   -2.3191   -0.8121 H       1  LIG   0.0432   0.0000 
24    H11     -1.9496   -3.9837   -0.8606 H       1  LIG   0.0404   0.0000 
25    H12      0.3856   -2.9106    0.7952 H       1  LIG   0.0508   0.0000 
26    H13     -1.1720   -3.4614    1.4141 H       1  LIG   0.0459   0.0000 
27    H14     -0.7054   -5.7724    0.7073 H       1  LIG   0.0368   0.0000 
28    H15      0.6374   -5.1547    1.6893 H       1  LIG   0.0579   0.0000 
@<TRIPOS>BOND
1     1     2     1
2     1     14    1
3     1     15    1
4     1     16    1
5     2     7     ar
6     2     3     ar
7     3     4     ar
8     3     8     1
9     4     5     ar
10    5     6     ar
11    5     17    1
12    6     7     ar
13    6     18    1
14    8     13    1
15    8     9     1
16    9     10    1
17    9     19    1
18    9     20    1
19    10    11    1
20    10    21    1
21    10    22    1
22    11    12    1
23    11    23    1
24    11    24    1
25    12    13    1
26    12    25    1
27    12    26    1
28    13    27    1
29    13    28    1
@<TRIPOS>SUBSTRUCTURE
1   LIG    1    
 
########## Number      : 416
########## Name        : ZINC00001746
########## Description : AM1BCC_CHARGES =   0.0001 ORIGINAL_CHARGES =  -0.0000

@<TRIPOS>MOLECULE
ZINC00001746
29    31    1     0     0    
SMALL
USER_CHARGES
****
****
@<TRIPOS>ATOM
1     C1       4.2191   -9.1878    0.2255 C.ar    1  LIG  -0.1311  -0.1500 
2     C2       4.5372   -9.1452   -1.1305 C.ar    1  LIG  -0.1027  -0.1500 
3     C3       4.7005   -7.9150   -1.7719 C.ar    1  LIG  -0.0951  -0.1500 
4     C4       4.5481   -6.7151   -1.0672 C.ar    1  LIG   0.1026   0.1790 
5     C5       4.2311   -6.7779    0.2833 C.ar    1  LIG  -0.1653   0.0862 
6     C6       4.0644   -8.0016    0.9396 C.ar    1  LIG  -0.0683  -0.1500 
7     C7       4.0801   -5.5034    0.9853 C.2     1  LIG   0.7193   0.5438 
8     O1       3.8001   -5.4984    2.1809 O.2     1  LIG  -0.5621  -0.5700 
9     N1       4.2776   -4.3830    0.1929 N.am    1  LIG  -0.1665   0.0110 
10    N2       4.5888   -4.4230   -1.1372 N.2     1  LIG  -0.0459  -0.0620 
11    N3       4.7206   -5.5050   -1.7487 N.2     1  LIG  -0.2222  -0.1790 
12    N4       4.1448   -3.1308    0.8163 N.3     1  LIG  -0.4116  -0.5490 
13    C8       5.3979   -2.3661    0.8058 C.3     1  LIG   0.1004   0.2700 
14    C9       5.2019   -1.0509    1.5574 C.3     1  LIG   0.1283   0.2800 
15    O2       4.1376   -0.2942    0.9753 O.3     1  LIG  -0.4132  -0.5600 
16    C10      2.9105   -1.0266    1.0206 C.3     1  LIG   0.1283   0.2800 
17    C11      3.0423   -2.3412    0.2540 C.3     1  LIG   0.1004   0.2700 
18    H1       4.0920  -10.1442    0.7247 H       1  LIG   0.1446   0.1500 
19    H2       4.6584  -10.0688   -1.6895 H       1  LIG   0.1431   0.1500 
20    H3       4.9488   -7.8975   -2.8307 H       1  LIG   0.1587   0.1500 
21    H4       3.8163   -8.0444    1.9965 H       1  LIG   0.1643   0.1500 
22    H5       6.1985   -2.9393    1.2875 H       1  LIG   0.0708   0.0000 
23    H6       5.7082   -2.1494   -0.2245 H       1  LIG   0.0539   0.0000 
24    H7       4.9902   -1.2207    2.6201 H       1  LIG   0.0492   0.0000 
25    H8       6.1125   -0.4465    1.4938 H       1  LIG   0.0732   0.0000 
26    H9       2.6248   -1.1957    2.0660 H       1  LIG   0.0491   0.0000 
27    H10      2.1352   -0.4044    0.5621 H       1  LIG   0.0732   0.0000 
28    H11      3.2263   -2.1232   -0.8059 H       1  LIG   0.0538   0.0000 
29    H12      2.0998   -2.8959    0.3273 H       1  LIG   0.0709   0.0000 
@<TRIPOS>BOND
1     1     6     ar
2     1     2     ar
3     1     18    1
4     2     3     ar
5     2     19    1
6     3     4     ar
7     3     20    1
8     4     11    1
9     4     5     ar
10    5     6     ar
11    5     7     1
12    6     21    1
13    7     8     2
14    7     9     am
15    9     10    1
16    9     12    1
17    10    11    2
18    12    17    1
19    12    13    1
20    13    14    1
21    13    22    1
22    13    23    1
23    14    15    1
24    14    24    1
25    14    25    1
26    15    16    1
27    16    17    1
28    16    26    1
29    16    27    1
30    17    28    1
31    17    29    1
@<TRIPOS>SUBSTRUCTURE
1   LIG    1    
 
########## Number      : 417
########## Name        : ZINC00001748
########## Description : AM1BCC_CHARGES =   0.0002 ORIGINAL_CHARGES =   0.0000

@<TRIPOS>MOLECULE
ZINC00001748
27    28    1     0     0    
SMALL
USER_CHARGES
****
****
@<TRIPOS>ATOM
1     C1       5.1446   -8.9856    0.2077 C.ar    1  LIG  -0.1190  -0.1500 
2     C2       5.3280   -8.0318   -0.7918 C.ar    1  LIG  -0.1346  -0.1500 
3     C3       4.3306   -7.0907   -1.0521 C.ar    1  LIG  -0.1048  -0.1500 
4     C4       3.1364   -7.1011   -0.3187 C.ar    1  LIG  -0.0955  -0.1435 
5     C5       2.9665   -8.0572    0.6918 C.ar    1  LIG  -0.1044  -0.1500 
6     C6       3.9653   -8.9973    0.9504 C.ar    1  LIG  -0.1347  -0.1500 
7     C7       2.0696   -6.0712   -0.5823 C.3     1  LIG   0.1759   0.4235 
8     O1       2.3346   -4.9437    0.2498 O.3     1  LIG  -0.3237  -0.3625 
9     C8       1.4699   -3.8856    0.1598 C.ar    1  LIG   0.0920   0.0825 
10    C9       0.3507   -3.8112   -0.6743 C.ar    1  LIG  -0.1719  -0.1500 
11    C10     -0.4529   -2.6678   -0.6692 C.ar    1  LIG  -0.1232  -0.1500 
12    C11     -0.1371   -1.6023    0.1683 C.ar    1  LIG   0.0883   0.0825 
13    C12      0.9738   -1.6622    1.0040 C.ar    1  LIG  -0.1788  -0.1500 
14    C13      1.7746   -2.8052    0.9969 C.ar    1  LIG  -0.1186  -0.1500 
15    O2      -0.9454   -0.5015    0.1461 O.3     1  LIG  -0.4994  -0.5325 
16    H1      -0.5984    0.1505    0.7788 H       1  LIG   0.4169   0.4500 
17    H2       5.9218   -9.7168    0.4103 H       1  LIG   0.1322   0.1500 
18    H3       6.2494   -8.0186   -1.3671 H       1  LIG   0.1332   0.1500 
19    H4       4.4912   -6.3481   -1.8299 H       1  LIG   0.1353   0.1500 
20    H5       2.0552   -8.0741    1.2845 H       1  LIG   0.1356   0.1500 
21    H6       3.8242   -9.7369    1.7334 H       1  LIG   0.1332   0.1500 
22    H7       2.0938   -5.7853   -1.6416 H       1  LIG   0.0443   0.0000 
23    H8       1.0857   -6.4996   -0.3528 H       1  LIG   0.0442   0.0000 
24    H9       0.0744   -4.6226   -1.3401 H       1  LIG   0.1393   0.1500 
25    H10     -1.3215   -2.6163   -1.3201 H       1  LIG   0.1507   0.1500 
26    H11      1.2269   -0.8350    1.6604 H       1  LIG   0.1357   0.1500 
27    H12      2.6425   -2.8505    1.6507 H       1  LIG   0.1520   0.1500 
@<TRIPOS>BOND
1     1     6     ar
2     1     2     ar
3     1     17    1
4     2     3     ar
5     2     18    1
6     3     4     ar
7     3     19    1
8     4     5     ar
9     4     7     1
10    5     6     ar
11    5     20    1
12    6     21    1
13    7     8     1
14    7     22    1
15    7     23    1
16    8     9     1
17    9     14    ar
18    9     10    ar
19    10    11    ar
20    10    24    1
21    11    12    ar
22    11    25    1
23    12    13    ar
24    12    15    1
25    13    14    ar
26    13    26    1
27    14    27    1
28    15    16    1
@<TRIPOS>SUBSTRUCTURE
1   LIG    1    
 
########## Number      : 418
########## Name        : ZINC00001760
########## Description : AM1BCC_CHARGES =   0.0000 ORIGINAL_CHARGES =   0.0000

@<TRIPOS>MOLECULE
ZINC00001760
27    28    1     0     0    
SMALL
USER_CHARGES
****
****
@<TRIPOS>ATOM
1     C1       5.3889  -10.2864   -0.7114 C.ar    1  LIG  -0.1520  -0.1500 
2     C2       6.3698  -10.2054    0.2724 C.ar    1  LIG  -0.1021  -0.1500 
3     C3       6.4564   -9.0694    1.0798 C.ar    1  LIG  -0.1761  -0.1500 
4     C4       5.5627   -8.0014    0.9124 C.ar    1  LIG   0.0709   0.1170 
5     C5       4.5808   -8.0923   -0.0788 C.ar    1  LIG  -0.1582  -0.1500 
6     C6       4.4964   -9.2314   -0.8861 C.ar    1  LIG  -0.1011  -0.1500 
7     N1       5.7220   -6.8924    1.7716 N.am    1  LIG  -0.4441  -0.5470 
8     C7       4.9792   -5.7302    1.8060 C.2     1  LIG   0.7542   0.7800 
9     O1       4.0287   -5.4272    1.0948 O.2     1  LIG  -0.5441  -0.5700 
10    O2       5.4925   -4.9114    2.8139 O.3     1  LIG  -0.3734  -0.2325 
11    C8       4.8222   -3.6896    2.9461 C.ar    1  LIG   0.1322   0.0825 
12    C9       3.7120   -3.6319    3.7906 C.ar    1  LIG  -0.1037  -0.1500 
13    C10      3.0431   -2.4177    3.9608 C.ar    1  LIG   0.0235   0.1770 
14    C11      3.4963   -1.2704    3.2957 C.ar    1  LIG   0.0246   0.1770 
15    C12      4.6214   -1.3369    2.4644 C.ar    1  LIG  -0.1096  -0.1500 
16    C13      5.2907   -2.5490    2.2929 C.ar    1  LIG   0.0247   0.1770 
17    Cl1      6.6824   -2.6037    1.2774 Cl      1  LIG  -0.0548  -0.1770 
18    Cl2      2.7111    0.2604    3.4665 Cl      1  LIG  -0.0548  -0.1770 
19    Cl3      1.6671   -2.3934    5.0059 Cl      1  LIG  -0.0539  -0.1770 
20    H1       6.4765   -6.9515    2.4494 H       1  LIG   0.3429   0.3700 
21    H2       5.3193  -11.1687   -1.3408 H       1  LIG   0.1361   0.1500 
22    H3       7.0683  -11.0255    0.4126 H       1  LIG   0.1349   0.1500 
23    H4       7.2316   -9.0296    1.8418 H       1  LIG   0.1331   0.1500 
24    H5       3.8623   -7.3001   -0.2561 H       1  LIG   0.1730   0.1500 
25    H6       3.7298   -9.2927   -1.6539 H       1  LIG   0.1381   0.1500 
26    H7       3.3759   -4.5293    4.3037 H       1  LIG   0.1704   0.1500 
27    H8       4.9757   -0.4436    1.9543 H       1  LIG   0.1693   0.1500 
@<TRIPOS>BOND
1     1     6     ar
2     1     2     ar
3     1     21    1
4     2     3     ar
5     2     22    1
6     3     4     ar
7     3     23    1
8     4     5     ar
9     4     7     1
10    5     6     ar
11    5     24    1
12    6     25    1
13    7     8     am
14    7     20    1
15    8     9     2
16    8     10    1
17    10    11    1
18    11    16    ar
19    11    12    ar
20    12    13    ar
21    12    26    1
22    13    14    ar
23    13    19    1
24    14    15    ar
25    14    18    1
26    15    16    ar
27    15    27    1
28    16    17    1
@<TRIPOS>SUBSTRUCTURE
1   LIG    1    
 
########## Number      : 419
########## Name        : ZINC00001762
########## Description : AM1BCC_CHARGES =   0.9999 ORIGINAL_CHARGES =   1.0000

@<TRIPOS>MOLECULE
ZINC00001762
28    28    1     0     0    
SMALL
USER_CHARGES
****
****
@<TRIPOS>ATOM
1     C1       4.4983   -9.5355   -0.2238 C.3     1  LIG   0.0833   0.5030 
2     C2       3.4201   -8.8798    1.9166 C.3     1  LIG   0.0828   0.5030 
3     C3       3.6383   -7.1989    0.0519 C.3     1  LIG  -0.0145   0.5640 
4     C4       2.3612   -6.4098    0.2623 C.2     1  LIG   0.5912   0.4228 
5     O1       1.2757   -6.9661    0.4163 O.2     1  LIG  -0.5387  -0.5700 
6     C5       2.4295   -4.9213    0.2559 C.ar    1  LIG  -0.2175   0.0862 
7     C6       3.5736   -4.2386   -0.1791 C.ar    1  LIG  -0.0747  -0.1500 
8     C7       3.6019   -2.8415   -0.1743 C.ar    1  LIG  -0.1511  -0.1500 
9     C8       2.4892   -2.1304    0.2614 C.ar    1  LIG   0.1906   0.0825 
10    C9       1.3485   -2.8020    0.6901 C.ar    1  LIG   0.0339   0.0825 
11    C10      1.3098   -4.1958    0.6892 C.ar    1  LIG  -0.0929  -0.1500 
12    O2       0.2742   -2.0680    1.1093 O.3     1  LIG  -0.5005  -0.5325 
13    O3       2.5453   -0.7655    0.2551 O.3     1  LIG  -0.4629  -0.5325 
14    H1      -0.4376   -2.6775    1.3702 H       1  LIG   0.4459   0.4500 
15    H2       1.6887   -0.4401    0.5860 H       1  LIG   0.4613   0.4500 
16    H3       4.4145   -9.4123   -1.3068 H       1  LIG   0.1052   0.0000 
17    H4       5.4856   -9.2286    0.1316 H       1  LIG   0.1042   0.0000 
18    H5       4.2876  -10.5733    0.0476 H       1  LIG   0.1089   0.0000 
19    H6       2.6158   -8.2714    2.3362 H       1  LIG   0.1199   0.0000 
20    H7       3.2146   -9.9383    2.0966 H       1  LIG   0.1058   0.0000 
21    H8       4.3871   -8.5927    2.3381 H       1  LIG   0.1005   0.0000 
22    H9       4.4612   -6.8122    0.6600 H       1  LIG   0.1249   0.0000 
23    H10      3.8890   -7.1688   -1.0134 H       1  LIG   0.1240   0.0000 
24    H11      4.4546   -4.7635   -0.5360 H       1  LIG   0.1272   0.1500 
25    H12      4.4912   -2.3172   -0.5132 H       1  LIG   0.1768   0.1500 
26    H13      0.4139   -4.7096    1.0282 H       1  LIG   0.1669   0.1500 
27    N1       3.4624   -8.6620    0.4273 N.4     1  LIG  -0.6710  -0.9590 
28    H14      2.5475   -8.9547    0.0553 H       1  LIG   0.4704   0.4500 
@<TRIPOS>BOND
1     1     16    1
2     1     17    1
3     1     18    1
4     1     27    1
5     2     19    1
6     2     20    1
7     2     21    1
8     2     27    1
9     3     4     1
10    3     22    1
11    3     23    1
12    3     27    1
13    4     5     2
14    4     6     1
15    6     11    ar
16    6     7     ar
17    7     8     ar
18    7     24    1
19    8     9     ar
20    8     25    1
21    9     10    ar
22    9     13    1
23    10    11    ar
24    10    12    1
25    11    26    1
26    12    14    1
27    13    15    1
28    27    28    1
@<TRIPOS>SUBSTRUCTURE
1   LIG    1    
 
########## Number      : 420
########## Name        : ZINC00001772
########## Description : AM1BCC_CHARGES =   1.0001 ORIGINAL_CHARGES =   1.0000

@<TRIPOS>MOLECULE
ZINC00001772
46    50    1     0     0    
SMALL
USER_CHARGES
****
****
@<TRIPOS>ATOM
1     C1       6.1666   -3.4961   -9.8236 C.2     1  LIG  -0.1112  -0.3000 
2     C2       4.9825   -2.9041  -10.0182 C.2     1  LIG  -0.2677  -0.2882 
3     C3       4.7061   -1.4622   -9.7199 C.3     1  LIG   0.1550   0.6412 
4     C4       2.4368   -1.8464   -8.7114 C.3     1  LIG   0.1159   0.5030 
5     C5       1.4115   -1.3685   -7.6973 C.3     1  LIG  -0.0855   0.0000 
6     C6       1.5871    0.0782   -7.1609 C.3     1  LIG  -0.0777   0.1435 
7     C7       2.2276    0.0134   -5.8434 C.ar    1  LIG  -0.1710  -0.1435 
8     C8       3.5782    0.0666   -5.5867 C.ar    1  LIG  -0.1230  -0.1435 
9     C9       3.9268   -0.0365   -4.2440 C.ar    1  LIG  -0.0844  -0.1500 
10    C10      2.9195   -0.1670   -3.2472 C.ar    1  LIG  -0.1739  -0.1500 
11    C11      1.5486   -0.1479   -3.5729 C.ar    1  LIG   0.1585   0.0825 
12    C12      1.2098   -0.0259   -4.8934 C.ar    1  LIG   0.0936   0.0825 
13    O1      -0.0476    0.1423   -5.4903 O.3     1  LIG  -0.2473  -0.3625 
14    C13      0.3534    0.8158   -6.7051 C.3     1  LIG   0.0367   0.3410 
15    C14     -0.5968    0.8053   -7.8738 C.2     1  LIG   0.5734   0.4480 
16    O2      -1.7637    0.4376   -7.8036 O.2     1  LIG  -0.4528  -0.5700 
17    C15      0.0224    1.4057   -9.1623 C.3     1  LIG  -0.1900   0.0610 
18    C16      1.5178    1.0210   -9.4512 C.3     1  LIG  -0.0561   0.0000 
19    C17      2.3720    0.9267   -8.1608 C.3     1  LIG   0.1727   0.2800 
20    C18      3.8025    0.2670   -8.1777 C.3     1  LIG   0.1090   0.5030 
21    C19      4.5040    0.3705   -6.7453 C.3     1  LIG  -0.0490   0.1435 
22    O3       2.5208    2.2885   -7.7250 O.3     1  LIG  -0.5683  -0.6800 
23    O4       0.5826   -0.2102   -2.6195 O.3     1  LIG  -0.4548  -0.5325 
24    H1       2.8259    2.3181   -6.8036 H       1  LIG   0.4283   0.4000 
25    H2       1.0094   -0.2846   -1.7490 H       1  LIG   0.4384   0.4500 
26    H3       6.3058   -4.5431  -10.0728 H       1  LIG   0.1550   0.1500 
27    H4       7.0149   -2.9568   -9.4158 H       1  LIG   0.1301   0.1500 
28    H5       4.1733   -3.4934  -10.4417 H       1  LIG   0.1522   0.1500 
29    H6       5.6458   -0.9424   -9.4968 H       1  LIG   0.0965   0.0000 
30    H7       4.2399   -0.9745  -10.5838 H       1  LIG   0.1061   0.0000 
31    H8       2.1230   -1.6848   -9.7448 H       1  LIG   0.0969   0.0000 
32    H9       2.5619   -2.9310   -8.6037 H       1  LIG   0.1016   0.0000 
33    H10      0.4274   -1.4926   -8.1656 H       1  LIG   0.1014   0.0000 
34    H11      1.4011   -2.0878   -6.8656 H       1  LIG   0.0984   0.0000 
35    H12      4.9699    0.0043   -3.9409 H       1  LIG   0.1530   0.1500 
36    H13      3.2295   -0.2456   -2.2071 H       1  LIG   0.1585   0.1500 
37    H14      0.5433    1.8777   -6.4423 H       1  LIG   0.0987   0.0000 
38    H15     -0.5950    1.1083  -10.0169 H       1  LIG   0.0955   0.0000 
39    H16     -0.0506    2.4953   -9.0623 H       1  LIG   0.0977   0.0000 
40    H17      1.5146    0.1131  -10.0480 H       1  LIG   0.0411   0.0000 
41    H18      1.9364    1.7946  -10.1085 H       1  LIG   0.0898   0.0000 
42    H19      4.4440    0.8198   -8.8862 H       1  LIG   0.1143   0.0000 
43    H20      4.8683    1.3979   -6.6191 H       1  LIG   0.1051   0.0000 
44    H21      5.3801   -0.2878   -6.7050 H       1  LIG   0.0698   0.0000 
45    N1       3.7973   -1.2360   -8.5226 N.4     1  LIG  -0.6804  -0.9590 
46    H22      4.1677   -1.7842   -7.7255 H       1  LIG   0.4500   0.4500 
@<TRIPOS>BOND
1     1     2     2
2     1     26    1
3     1     27    1
4     2     3     1
5     2     28    1
6     3     29    1
7     3     30    1
8     3     45    1
9     4     5     1
10    4     31    1
11    4     32    1
12    4     45    1
13    5     6     1
14    5     33    1
15    5     34    1
16    6     14    1
17    6     19    1
18    6     7     1
19    7     12    ar
20    7     8     ar
21    8     21    1
22    8     9     ar
23    9     10    ar
24    9     35    1
25    10    11    ar
26    10    36    1
27    11    12    ar
28    11    23    1
29    12    13    1
30    13    14    1
31    14    15    1
32    14    37    1
33    15    16    2
34    15    17    1
35    17    18    1
36    17    38    1
37    17    39    1
38    18    19    1
39    18    40    1
40    18    41    1
41    19    20    1
42    19    22    1
43    20    21    1
44    20    42    1
45    20    45    1
46    21    43    1
47    21    44    1
48    22    24    1
49    23    25    1
50    45    46    1
@<TRIPOS>SUBSTRUCTURE
1   LIG    1    
 
########## Number      : 421
########## Name        : ZINC00001775
########## Description : AM1BCC_CHARGES =  -1.0001 ORIGINAL_CHARGES =  -1.0000

@<TRIPOS>MOLECULE
ZINC00001775
35    37    1     0     0    
SMALL
USER_CHARGES
****
****
@<TRIPOS>ATOM
1     C1       1.8085   -0.6316   -4.4626 C.3     1  LIG  -0.1183   0.0000 
2     C2       0.7378   -1.7142   -4.6539 C.3     1  LIG   0.1904   0.4182 
3     C3       1.3435   -3.0563   -5.0233 C.2     1  LIG  -0.1902  -0.1238 
4     C4       1.1974   -3.5936   -6.2437 C.2     1  LIG  -0.0884  -0.1238 
5     C5       0.4432   -2.8750   -7.3289 C.3     1  LIG  -0.0833   0.1382 
6     C6       0.2660   -1.3867   -6.9922 C.3     1  LIG   0.1547   0.2800 
7     O1      -0.1972   -1.2794   -5.6490 O.3     1  LIG  -0.4258  -0.5600 
8     C7      -0.7716   -0.7258   -7.8975 C.3     1  LIG  -0.1967  -0.1060 
9     C8      -0.3929   -0.5830   -9.3728 C.2     1  LIG   0.9112   0.9060 
10    O2       0.8412   -0.5798   -9.6351 O.co2   1  LIG  -0.8565  -0.9000 
11    C9       1.7596   -4.9229   -6.5841 C.2     1  LIG   0.5631   0.4694 
12    O3       1.5665   -5.4353   -7.6808 O.2     1  LIG  -0.5006  -0.5700 
13    C10      2.5663   -5.6141   -5.5627 C.ar    1  LIG  -0.0943   0.0862 
14    C11      3.1748   -6.8321   -5.9004 C.ar    1  LIG  -0.1299  -0.1500 
15    C12      3.9458   -7.5144   -4.9623 C.ar    1  LIG  -0.0856  -0.1500 
16    C13      4.1133   -6.9860   -3.6862 C.ar    1  LIG  -0.2180  -0.1500 
17    C14      3.5058   -5.7728   -3.3483 C.ar    1  LIG   0.1598   0.0825 
18    C15      2.7238   -5.0748   -4.2836 C.ar    1  LIG  -0.1564   0.0862 
19    C16      2.0600   -3.7932   -3.9420 C.2     1  LIG   0.5831   0.4694 
20    O4       2.0882   -3.3447   -2.8016 O.2     1  LIG  -0.5129  -0.5700 
21    O5       3.6951   -5.2771   -2.0865 O.3     1  LIG  -0.4587  -0.5325 
22    H1       4.2565   -5.8890   -1.5813 H       1  LIG   0.4094   0.4500 
23    H2       1.3380    0.3497   -4.3374 H       1  LIG   0.0467   0.0000 
24    H3       2.4272   -0.8303   -3.5819 H       1  LIG   0.0402   0.0000 
25    H4       2.4784   -0.5574   -5.3256 H       1  LIG   0.0467   0.0000 
26    H5       0.2089   -1.8089   -3.6913 H       1  LIG   0.0766   0.0000 
27    H6       0.9624   -2.9721   -8.2889 H       1  LIG   0.1269   0.0000 
28    H7      -0.5366   -3.3592   -7.4306 H       1  LIG   0.0740   0.0000 
29    H8       1.2365   -0.8838   -7.1213 H       1  LIG   0.0632   0.0000 
30    H9      -1.7257   -1.2636   -7.8180 H       1  LIG   0.0371   0.0000 
31    H10     -0.9752    0.2863   -7.5229 H       1  LIG   0.0422   0.0000 
32    H11      3.0590   -7.2622   -6.8924 H       1  LIG   0.1612   0.1500 
33    H12      4.4165   -8.4569   -5.2276 H       1  LIG   0.1331   0.1500 
34    H13      4.7190   -7.5271   -2.9643 H       1  LIG   0.1308   0.1500 
35    O6      -1.3795   -0.4712  -10.1556 O.co2   1  LIG  -0.8349  -0.9000 
@<TRIPOS>BOND
1     1     2     1
2     1     23    1
3     1     24    1
4     1     25    1
5     2     7     1
6     2     3     1
7     2     26    1
8     3     19    1
9     3     4     2
10    4     5     1
11    4     11    1
12    5     6     1
13    5     27    1
14    5     28    1
15    6     7     1
16    6     8     1
17    6     29    1
18    8     9     1
19    8     30    1
20    8     31    1
21    9     10    2
22    9     35    1
23    11    12    2
24    11    13    1
25    13    18    ar
26    13    14    ar
27    14    15    ar
28    14    32    1
29    15    16    ar
30    15    33    1
31    16    17    ar
32    16    34    1
33    17    18    ar
34    17    21    1
35    18    19    1
36    19    20    2
37    21    22    1
@<TRIPOS>SUBSTRUCTURE
1   LIG    1    
 
########## Number      : 422
########## Name        : ZINC00001791
########## Description : AM1BCC_CHARGES =  -0.0000 ORIGINAL_CHARGES =   0.0000

@<TRIPOS>MOLECULE
ZINC00001791
39    41    1     0     0    
SMALL
USER_CHARGES
****
****
@<TRIPOS>ATOM
1     C1       3.7427   -5.4809   -7.5510 C.3     1  LIG  -0.1011   0.0000 
2     C2       2.6114   -4.5898   -7.0788 C.3     1  LIG   0.1377   0.2800 
3     O1       2.8584   -4.2386   -5.7097 O.3     1  LIG  -0.4368  -0.4300 
4     C3       1.9289   -3.4282   -5.1439 C.2     1  LIG   0.6448   0.6338 
5     O2       0.9198   -2.9766   -5.6568 O.2     1  LIG  -0.5322  -0.5700 
6     C4       2.3269   -3.1817   -3.7441 C.ar    1  LIG  -0.0726   0.0862 
7     C5       3.5945   -2.6403   -3.5208 C.ar    1  LIG  -0.1816  -0.1500 
8     C6       3.9775   -2.3686   -2.2153 C.ar    1  LIG   0.4702   0.3100 
9     N1       3.1454   -2.6068   -1.1697 N.ar    1  LIG  -0.6374  -0.6200 
10    C7       1.9231   -3.1279   -1.3842 C.ar    1  LIG   0.3910   0.3100 
11    C8       1.4484   -3.4452   -2.6707 C.ar    1  LIG  -0.1097   0.0000 
12    C9       0.1536   -4.0074   -2.8046 C.ar    1  LIG  -0.1184  -0.1500 
13    C10     -0.6581   -4.2503   -1.6916 C.ar    1  LIG  -0.0632  -0.1435 
14    C11     -0.1795   -3.9074   -0.4307 C.ar    1  LIG  -0.1212  -0.1500 
15    C12      1.0976   -3.3608   -0.2902 C.ar    1  LIG  -0.1620  -0.1500 
16    C13     -2.0370   -4.8118   -1.8609 C.3     1  LIG  -0.0573   0.1435 
17    C14      5.2941   -1.8006   -1.8658 C.ar    1  LIG  -0.1539   0.0000 
18    C15      5.4349   -0.9265   -0.7711 C.ar    1  LIG  -0.0881  -0.1500 
19    C16      6.6764   -0.3826   -0.4284 C.ar    1  LIG  -0.1376  -0.1500 
20    C17      7.8076   -0.7035   -1.1716 C.ar    1  LIG  -0.1170  -0.1500 
21    C18      7.6975   -1.5691   -2.2552 C.ar    1  LIG  -0.1355  -0.1500 
22    C19      6.4550   -2.1121   -2.5975 C.ar    1  LIG  -0.1134  -0.1500 
23    H1       3.5979   -5.7758   -8.5940 H       1  LIG   0.0486   0.0000 
24    H2       4.7039   -4.9645   -7.4593 H       1  LIG   0.0487   0.0000 
25    H3       3.8060   -6.3831   -6.9337 H       1  LIG   0.0502   0.0000 
26    H4       2.5720   -3.6808   -7.6890 H       1  LIG   0.0512   0.0000 
27    H5       1.6581   -5.1246   -7.1528 H       1  LIG   0.0554   0.0000 
28    H6       4.2509   -2.4185   -4.3572 H       1  LIG   0.1608   0.1500 
29    H7      -0.2320   -4.2678   -3.7883 H       1  LIG   0.1562   0.1500 
30    H8      -0.7905   -4.0646    0.4546 H       1  LIG   0.1378   0.1500 
31    H9       1.4494   -3.1120    0.7097 H       1  LIG   0.1521   0.1500 
32    H10     -2.0736   -5.5080   -2.7054 H       1  LIG   0.0485   0.0000 
33    H11     -2.3464   -5.3676   -0.9695 H       1  LIG   0.0453   0.0000 
34    H12     -2.7519   -4.0023   -2.0374 H       1  LIG   0.0529   0.0000 
35    H13      4.5696   -0.6498   -0.1713 H       1  LIG   0.1494   0.1500 
36    H14      6.7562    0.2919    0.4194 H       1  LIG   0.1352   0.1500 
37    H15      8.7725   -0.2823   -0.9057 H       1  LIG   0.1331   0.1500 
38    H16      8.5791   -1.8274   -2.8352 H       1  LIG   0.1339   0.1500 
39    H17      6.4142   -2.7972   -3.4417 H       1  LIG   0.1360   0.1500 
@<TRIPOS>BOND
1     1     2     1
2     1     23    1
3     1     24    1
4     1     25    1
5     2     3     1
6     2     26    1
7     2     27    1
8     3     4     1
9     4     5     2
10    4     6     1
11    6     11    ar
12    6     7     ar
13    7     8     ar
14    7     28    1
15    8     9     ar
16    8     17    1
17    9     10    ar
18    10    15    ar
19    10    11    ar
20    11    12    ar
21    12    13    ar
22    12    29    1
23    13    14    ar
24    13    16    1
25    14    15    ar
26    14    30    1
27    15    31    1
28    16    32    1
29    16    33    1
30    16    34    1
31    17    22    ar
32    17    18    ar
33    18    19    ar
34    18    35    1
35    19    20    ar
36    19    36    1
37    20    21    ar
38    20    37    1
39    21    22    ar
40    21    38    1
41    22    39    1
@<TRIPOS>SUBSTRUCTURE
1   LIG    1    
 
########## Number      : 423
########## Name        : ZINC00001792
########## Description : AM1BCC_CHARGES =   1.0001 ORIGINAL_CHARGES =   1.0000

@<TRIPOS>MOLECULE
ZINC00001792
35    35    1     0     0    
SMALL
USER_CHARGES
****
****
@<TRIPOS>ATOM
1     C1       4.3858   -8.9745    1.6921 C.3     1  LIG   0.0762   0.3001 
2     N1       4.2575   -8.2699    0.4256 N.am    1  LIG  -0.4367  -0.6602 
3     C2       4.9855   -8.8388   -0.7029 C.3     1  LIG   0.0782   0.3001 
4     C3       3.4686   -7.1197    0.3416 C.2     1  LIG   0.7517   0.7800 
5     O1       2.8506   -6.6355    1.2887 O.2     1  LIG  -0.5807  -0.5700 
6     O2       3.4554   -6.5738   -0.9450 O.3     1  LIG  -0.3758  -0.2325 
7     C4       2.6876   -5.4106   -1.0709 C.ar    1  LIG   0.1615   0.0825 
8     C5       1.4316   -5.5030   -1.6582 C.ar    1  LIG  -0.0804  -0.1500 
9     C6       0.6787   -4.3443   -1.8114 C.ar    1  LIG  -0.0968  -0.1500 
10    C7       1.1845   -3.1075   -1.3889 C.ar    1  LIG  -0.1149  -0.1500 
11    C8       2.4609   -3.0086   -0.8086 C.ar    1  LIG  -0.0219   0.3640 
12    C9       3.2167   -4.1844   -0.6615 C.ar    1  LIG  -0.1200  -0.1500 
13    N2       3.0465   -1.6768   -0.3376 N.4     1  LIG  -0.4734  -0.8730 
14    C10      2.0888   -0.5099   -0.5663 C.3     1  LIG   0.0928   0.5030 
15    C11      3.3315   -1.7689    1.1592 C.3     1  LIG   0.0932   0.5030 
16    C12      4.3273   -1.3998   -1.1191 C.3     1  LIG   0.0964   0.5030 
17    H1       3.8141   -8.4885    2.4867 H       1  LIG   0.0806   0.0000 
18    H2       4.0188   -9.9971    1.5648 H       1  LIG   0.0506   0.0000 
19    H3       5.4417   -8.9973    1.9770 H       1  LIG   0.0561   0.0000 
20    H4       4.8515   -8.2654   -1.6219 H       1  LIG   0.0707   0.0000 
21    H5       6.0507   -8.8623   -0.4545 H       1  LIG   0.0553   0.0000 
22    H6       4.6285   -9.8594   -0.8692 H       1  LIG   0.0492   0.0000 
23    H7       1.0395   -6.4596   -1.9891 H       1  LIG   0.1808   0.1500 
24    H8      -0.3089   -4.3971   -2.2624 H       1  LIG   0.1711   0.1500 
25    H9       0.5453   -2.2431   -1.5356 H       1  LIG   0.1546   0.1500 
26    H10      4.2118   -4.1669   -0.2271 H       1  LIG   0.1667   0.1500 
27    H11      2.5727    0.4038   -0.2047 H       1  LIG   0.0973   0.0000 
28    H12      1.8920   -0.4120   -1.6386 H       1  LIG   0.1015   0.0000 
29    H13      1.1712   -0.6814    0.0052 H       1  LIG   0.1050   0.0000 
30    H14      3.6895   -0.7916    1.4984 H       1  LIG   0.0935   0.0000 
31    H15      2.4033   -2.0316    1.6767 H       1  LIG   0.1109   0.0000 
32    H16      4.1066   -2.5184    1.3413 H       1  LIG   0.1058   0.0000 
33    H17      4.7036   -0.4166   -0.8188 H       1  LIG   0.0949   0.0000 
34    H18      5.0764   -2.1597   -0.8801 H       1  LIG   0.1014   0.0000 
35    H19      4.0928   -1.4039   -2.1884 H       1  LIG   0.1047   0.0000 
@<TRIPOS>BOND
1     1     2     1
2     1     17    1
3     1     18    1
4     1     19    1
5     2     3     1
6     2     4     am
7     3     20    1
8     3     21    1
9     3     22    1
10    4     5     2
11    4     6     1
12    6     7     1
13    7     12    ar
14    7     8     ar
15    8     9     ar
16    8     23    1
17    9     10    ar
18    9     24    1
19    10    11    ar
20    10    25    1
21    11    12    ar
22    11    13    1
23    12    26    1
24    13    14    1
25    13    15    1
26    13    16    1
27    14    27    1
28    14    28    1
29    14    29    1
30    15    30    1
31    15    31    1
32    15    32    1
33    16    33    1
34    16    34    1
35    16    35    1
@<TRIPOS>SUBSTRUCTURE
1   LIG    1    
 
########## Number      : 424
########## Name        : ZINC00001795
########## Description : AM1BCC_CHARGES =  -1.0000 ORIGINAL_CHARGES =  -1.0000

@<TRIPOS>MOLECULE
ZINC00001795
13    13    1     0     0    
SMALL
USER_CHARGES
****
****
@<TRIPOS>ATOM
1     C1       6.3198   -9.5715    0.4098 C.ar    1  LIG  -0.2792  -0.1500 
2     C2       5.3242   -8.6441    0.1149 C.ar    1  LIG  -0.0817  -0.1500 
3     C3       4.2576   -8.9938   -0.7203 C.ar    1  LIG  -0.2310  -0.1790 
4     C4       4.2587  -10.2935   -1.2218 C.ar    1  LIG   0.4025   0.1600 
5     N1       5.2100  -11.2211   -0.9560 N.ar    1  LIG  -0.7076  -0.6200 
6     C5       6.2174  -10.8345   -0.1455 C.ar    1  LIG   0.3550   0.1600 
7     C6       3.1649   -8.0202   -1.0611 C.2     1  LIG   0.9116   0.9790 
8     O1       3.2455   -6.8560   -0.5584 O.co2   1  LIG  -0.8298  -0.9000 
9     H1       7.1503   -9.3105    1.0557 H       1  LIG   0.1124   0.1500 
10    H2       5.3911   -7.6474    0.5439 H       1  LIG   0.1526   0.1500 
11    H3       3.4684  -10.6480   -1.8775 H       1  LIG   0.0370   0.1500 
12    H4       6.9675  -11.5927    0.0538 H       1  LIG  -0.0137   0.1500 
13    O2       2.2390   -8.4318   -1.8278 O.co2   1  LIG  -0.8281  -0.9000 
@<TRIPOS>BOND
1     1     6     ar
2     1     2     ar
3     1     9     1
4     2     3     ar
5     2     10    1
6     3     4     ar
7     3     7     1
8     4     5     ar
9     4     11    1
10    5     6     ar
11    6     12    1
12    7     8     2
13    7     13    1
@<TRIPOS>SUBSTRUCTURE
1   LIG    1    
 
########## Number      : 425
########## Name        : ZINC00001797
########## Description : AM1BCC_CHARGES =   0.0002 ORIGINAL_CHARGES =   0.0000

@<TRIPOS>MOLECULE
ZINC00001797
26    27    1     0     0    
SMALL
USER_CHARGES
****
****
@<TRIPOS>ATOM
1     C1       4.8528   -7.4760   -0.7346 C.ar    1  LIG  -0.2510  -0.1500 
2     C2       4.5613   -6.3211   -0.0176 C.ar    1  LIG  -0.0525  -0.1500 
3     C3       3.3408   -6.2303    0.6459 C.ar    1  LIG  -0.2526   0.0862 
4     C4       2.4686   -7.3089    0.5980 C.ar    1  LIG   0.4225   0.1600 
5     N1       2.7261   -8.4419   -0.0923 N.ar    1  LIG  -0.6650  -0.6200 
6     C5       3.9115   -8.4953   -0.7429 C.ar    1  LIG   0.4086   0.1600 
7     C6       3.0237   -5.0383    1.4423 C.2     1  LIG   0.6784   0.5438 
8     O1       3.7392   -4.8273    2.4202 O.2     1  LIG  -0.5919  -0.5700 
9     N2       1.9471   -4.2438    1.0486 N.am    1  LIG  -0.4700  -0.6602 
10    C7       1.1477   -4.4178   -0.1709 C.3     1  LIG   0.0579   0.3001 
11    C8       0.9671   -3.0804   -0.8834 C.3     1  LIG   0.1066   0.2800 
12    O2       0.4303   -2.0997    0.0091 O.3     1  LIG  -0.4096  -0.5600 
13    C9       1.3154   -1.8726    1.1107 C.3     1  LIG   0.1048   0.2800 
14    C10      1.4967   -3.1539    1.9139 C.3     1  LIG   0.0522   0.3001 
15    H1       5.7903   -7.5790   -1.2693 H       1  LIG   0.1501   0.1500 
16    H2       5.2792   -5.5068    0.0159 H       1  LIG   0.1541   0.1500 
17    H3       1.5188   -7.2985    1.1232 H       1  LIG   0.0330   0.1500 
18    H4       4.0953   -9.4151   -1.2892 H       1  LIG   0.0271   0.1500 
19    H5       1.6022   -5.1349   -0.8573 H       1  LIG   0.0655   0.0000 
20    H6       0.1754   -4.8099    0.1490 H       1  LIG   0.0559   0.0000 
21    H7       1.9186   -2.7152   -1.2881 H       1  LIG   0.0369   0.0000 
22    H8       0.2694   -3.1923   -1.7192 H       1  LIG   0.0763   0.0000 
23    H9       2.2742   -1.4984    0.7325 H       1  LIG   0.0395   0.0000 
24    H10      0.8753   -1.0931    1.7401 H       1  LIG   0.0769   0.0000 
25    H11      0.5358   -3.4719    2.3355 H       1  LIG   0.0544   0.0000 
26    H12      2.1926   -2.9919    2.7424 H       1  LIG   0.0921   0.0000 
@<TRIPOS>BOND
1     1     6     ar
2     1     2     ar
3     1     15    1
4     2     3     ar
5     2     16    1
6     3     4     ar
7     3     7     1
8     4     5     ar
9     4     17    1
10    5     6     ar
11    6     18    1
12    7     8     2
13    7     9     am
14    9     14    1
15    9     10    1
16    10    11    1
17    10    19    1
18    10    20    1
19    11    12    1
20    11    21    1
21    11    22    1
22    12    13    1
23    13    14    1
24    13    23    1
25    13    24    1
26    14    25    1
27    14    26    1
@<TRIPOS>SUBSTRUCTURE
1   LIG    1    
 
########## Number      : 426
########## Name        : ZINC00001798
########## Description : AM1BCC_CHARGES =   1.0000 ORIGINAL_CHARGES =   1.0000

@<TRIPOS>MOLECULE
ZINC00001798
27    28    1     0     0    
SMALL
USER_CHARGES
****
****
@<TRIPOS>ATOM
1     C1       2.0442   -1.0760    1.5033 C.3     1  LIG   0.0866   0.5030 
2     C2       3.1778    0.7897    2.7326 C.3     1  LIG   0.1102   0.5030 
3     C3       4.5045    0.5679    3.4451 C.3     1  LIG  -0.1026   0.0000 
4     C4       4.7102   -0.9352    3.3978 C.3     1  LIG  -0.0961   0.0000 
5     C5       3.2957   -1.4384    3.6902 C.3     1  LIG   0.2114   0.6465 
6     C6       3.0277   -2.9145    3.5091 C.ar    1  LIG  -0.2935  -0.1435 
7     C7       3.8594   -3.7824    2.7962 C.ar    1  LIG  -0.0558  -0.1500 
8     C8       3.5328   -5.1317    2.6798 C.ar    1  LIG  -0.2353  -0.1500 
9     C9       2.3731   -5.5786    3.2877 C.ar    1  LIG   0.4440   0.1600 
10    N1       1.5388   -4.7837    3.9886 N.ar    1  LIG  -0.6379  -0.6200 
11    C10      1.8870   -3.4801    4.0827 C.ar    1  LIG   0.4172   0.1600 
12    H1       1.3858   -1.9362    1.6423 H       1  LIG   0.1088   0.0000 
13    H2       1.4957   -0.2946    0.9692 H       1  LIG   0.0982   0.0000 
14    H3       2.9575   -1.3432    0.9654 H       1  LIG   0.1017   0.0000 
15    H4       3.3240    1.0082    1.6697 H       1  LIG   0.1077   0.0000 
16    H5       2.5750    1.5752    3.1971 H       1  LIG   0.1022   0.0000 
17    H6       5.3231    1.1177    2.9716 H       1  LIG   0.0955   0.0000 
18    H7       4.4322    0.9090    4.4849 H       1  LIG   0.0924   0.0000 
19    H8       5.0613   -1.2273    2.4017 H       1  LIG   0.0804   0.0000 
20    H9       5.4414   -1.2791    4.1359 H       1  LIG   0.1081   0.0000 
21    H10      3.1282   -1.2483    4.7691 H       1  LIG   0.1022   0.0000 
22    H11      4.7690   -3.4318    2.3183 H       1  LIG   0.1489   0.1500 
23    H12      4.1706   -5.8132    2.1278 H       1  LIG   0.1727   0.1500 
24    H13      2.0768   -6.6206    3.2247 H       1  LIG   0.0553   0.1500 
25    H14      1.1905   -2.8745    4.6565 H       1  LIG   0.0255   0.1500 
26    N2       2.4145   -0.5219    2.8649 N.4     1  LIG  -0.6950  -0.9590 
27    H15      1.5018   -0.3654    3.3236 H       1  LIG   0.4472   0.4500 
@<TRIPOS>BOND
1     1     12    1
2     1     13    1
3     1     14    1
4     1     26    1
5     2     3     1
6     2     15    1
7     2     16    1
8     2     26    1
9     3     4     1
10    3     17    1
11    3     18    1
12    4     5     1
13    4     19    1
14    4     20    1
15    5     6     1
16    5     21    1
17    5     26    1
18    6     11    ar
19    6     7     ar
20    7     8     ar
21    7     22    1
22    8     9     ar
23    8     23    1
24    9     10    ar
25    9     24    1
26    10    11    ar
27    11    25    1
28    26    27    1
@<TRIPOS>SUBSTRUCTURE
1   LIG    1    
 
########## Number      : 427
########## Name        : ZINC00001799
########## Description : AM1BCC_CHARGES =  -0.0001 ORIGINAL_CHARGES =   0.0000

@<TRIPOS>MOLECULE
ZINC00001799
15    15    1     0     0    
SMALL
USER_CHARGES
****
****
@<TRIPOS>ATOM
1     C1       4.5729   -8.6991   -1.7137 C.ar    1  LIG  -0.2502  -0.1500 
2     C2       4.6228   -7.6157   -0.8421 C.ar    1  LIG  -0.0731  -0.1500 
3     C3       4.5091   -7.8206    0.5345 C.ar    1  LIG  -0.2039  -0.1435 
4     C4       4.3294   -9.1302    0.9685 C.ar    1  LIG   0.4154   0.1600 
5     N1       4.2776  -10.2063    0.1500 N.ar    1  LIG  -0.6669  -0.6200 
6     C5       4.4021   -9.9621   -1.1725 C.ar    1  LIG   0.3992   0.1600 
7     C6       4.5361   -6.6779    1.4996 C.3     1  LIG   0.1823   0.4235 
8     O1       3.2073   -6.2381    1.7331 O.3     1  LIG  -0.5924  -0.6800 
9     H1       3.2584   -5.4955    2.3586 H       1  LIG   0.4006   0.4000 
10    H2       4.6626   -8.5579   -2.7848 H       1  LIG   0.1437   0.1500 
11    H3       4.7492   -6.6130   -1.2420 H       1  LIG   0.1399   0.1500 
12    H4       4.2169   -9.3603    2.0239 H       1  LIG   0.0246   0.1500 
13    H5       4.3569  -10.8389   -1.8102 H       1  LIG   0.0221   0.1500 
14    H6       4.9853   -6.9832    2.4508 H       1  LIG   0.0302   0.0000 
15    H7       5.1241   -5.8438    1.1017 H       1  LIG   0.0284   0.0000 
@<TRIPOS>BOND
1     1     6     ar
2     1     2     ar
3     1     10    1
4     2     3     ar
5     2     11    1
6     3     4     ar
7     3     7     1
8     4     5     ar
9     4     12    1
10    5     6     ar
11    6     13    1
12    7     8     1
13    7     14    1
14    7     15    1
15    8     9     1
@<TRIPOS>SUBSTRUCTURE
1   LIG    1    
 
########## Number      : 428
########## Name        : ZINC00001800
########## Description : AM1BCC_CHARGES =   0.0002 ORIGINAL_CHARGES =   0.0000

@<TRIPOS>MOLECULE
ZINC00001800
16    16    1     0     0    
SMALL
USER_CHARGES
****
****
@<TRIPOS>ATOM
1     C1       6.3938  -10.1760   -0.4213 C.ar    1  LIG  -0.2568  -0.1500 
2     C2       5.8161   -9.1048   -1.0963 C.ar    1  LIG  -0.0368  -0.1500 
3     C3       4.4262   -8.9672   -1.1206 C.ar    1  LIG  -0.2737   0.0862 
4     C4       3.6738   -9.9183   -0.4410 C.ar    1  LIG   0.4329   0.1600 
5     N1       4.2070  -10.9712    0.2233 N.ar    1  LIG  -0.6701  -0.6200 
6     C5       5.5540  -11.0742    0.2147 C.ar    1  LIG   0.4218   0.1600 
7     C6       3.8240   -7.8158   -1.8362 C.2     1  LIG   0.6067   0.5438 
8     O1       4.5087   -6.8263   -2.0839 O.2     1  LIG  -0.5607  -0.5700 
9     N2       2.5066   -7.9463   -2.2038 N.am    1  LIG  -0.3423  -0.3945 
10    O2       1.9269   -6.8714   -2.8987 O.3     1  LIG  -0.4364  -0.4355 
11    H1       1.9224   -8.7669   -2.0958 H       1  LIG   0.2981   0.3700 
12    H2       2.7064   -6.3627   -3.1844 H       1  LIG   0.4380   0.4000 
13    H3       7.4702  -10.3032   -0.3947 H       1  LIG   0.1527   0.1500 
14    H4       6.4608   -8.3910   -1.6026 H       1  LIG   0.1658   0.1500 
15    H5       2.5917   -9.8720   -0.3811 H       1  LIG   0.0319   0.1500 
16    H6       5.9558  -11.9262    0.7534 H       1  LIG   0.0291   0.1500 
@<TRIPOS>BOND
1     1     6     ar
2     1     2     ar
3     1     13    1
4     2     3     ar
5     2     14    1
6     3     4     ar
7     3     7     1
8     4     5     ar
9     4     15    1
10    5     6     ar
11    6     16    1
12    7     8     2
13    7     9     am
14    9     10    1
15    9     11    1
16    10    12    1
@<TRIPOS>SUBSTRUCTURE
1   LIG    1    
 
########## Number      : 429
########## Name        : ZINC00001803
########## Description : AM1BCC_CHARGES =   0.0001 ORIGINAL_CHARGES =  -0.0000

@<TRIPOS>MOLECULE
ZINC00001803
24    25    1     0     0    
SMALL
USER_CHARGES
****
****
@<TRIPOS>ATOM
1     C1       4.4477   -7.0789    0.7705 C.2     1  LIG  -0.2689  -0.1500 
2     C2       5.7109   -7.3354    0.1790 C.2     1  LIG  -0.1327  -0.1500 
3     C3       5.8060   -6.4410   -0.8559 C.2     1  LIG   0.1190   0.2200 
4     O1       4.7087   -5.6532   -0.9544 O.3     1  LIG  -0.2928  -0.2800 
5     C4       3.8687   -6.0482    0.0518 C.2     1  LIG   0.2889   0.0550 
6     C5       2.6055   -5.3865    0.2051 C.2     1  LIG   0.2568   0.4750 
7     N1       2.2565   -4.4411   -0.6021 N.2     1  LIG  -0.3932  -0.5120 
8     N2       1.0704   -3.8197   -0.3935 N.am    1  LIG  -0.2252  -0.2981 
9     C6       0.4840   -3.0180   -1.4405 C.3     1  LIG   0.0896   0.3001 
10    C7      -0.8495   -2.5763   -0.8602 C.3     1  LIG   0.0399   0.3001 
11    N3      -0.7228   -2.8299    0.5513 N.am    1  LIG  -0.5105  -0.7301 
12    C8       0.4071   -3.6182    0.8386 C.2     1  LIG   0.7507   0.6900 
13    O2       0.7170   -4.0052    1.9564 O.2     1  LIG  -0.6160  -0.5700 
14    N4       6.8233   -6.2015   -1.8158 N.pl3   1  LIG   0.2467   0.9600 
15    O3       7.8324   -6.9123   -1.7388 O.2     1  LIG  -0.2024  -0.5200 
16    O4       6.6251   -5.3088   -2.6485 O.3     1  LIG  -0.1752  -0.5200 
17    H1      -1.3936   -2.5414    1.2554 H       1  LIG   0.3209   0.3700 
18    H2       4.0108   -7.5848    1.6204 H       1  LIG   0.1801   0.1500 
19    H3       6.4415   -8.0740    0.4769 H       1  LIG   0.1894   0.1500 
20    H4       1.9634   -5.7563    1.0210 H       1  LIG   0.0541   0.0600 
21    H5       1.1397   -2.1603   -1.6251 H       1  LIG   0.0789   0.0000 
22    H6       0.3712   -3.6001   -2.3596 H       1  LIG   0.0735   0.0000 
23    H7      -1.0638   -1.5193   -1.0370 H       1  LIG   0.0532   0.0000 
24    H8      -1.6774   -3.1850   -1.2367 H       1  LIG   0.0753   0.0000 
@<TRIPOS>BOND
1     1     5     2
2     1     2     1
3     1     18    1
4     2     3     2
5     2     19    1
6     3     4     1
7     3     14    1
8     4     5     1
9     5     6     1
10    6     7     2
11    6     20    1
12    7     8     1
13    8     12    am
14    8     9     1
15    9     10    1
16    9     21    1
17    9     22    1
18    10    11    1
19    10    23    1
20    10    24    1
21    11    12    am
22    11    17    1
23    12    13    2
24    14    15    2
25    14    16    1
@<TRIPOS>SUBSTRUCTURE
1   LIG    1    
 
########## Number      : 430
########## Name        : ZINC00001804
########## Description : AM1BCC_CHARGES =   0.0001 ORIGINAL_CHARGES =  -0.0000

@<TRIPOS>MOLECULE
ZINC00001804
31    32    1     0     0    
SMALL
USER_CHARGES
****
****
@<TRIPOS>ATOM
1     C1      -0.8040    2.2914   -0.6877 C.2     1  LIG  -0.2766  -0.1500 
2     C2      -1.3067    2.3864   -2.0105 C.2     1  LIG  -0.1352  -0.1500 
3     C3      -1.2155    3.7166   -2.3299 C.2     1  LIG   0.1223   0.2200 
4     O1      -0.6990    4.4522   -1.3167 O.3     1  LIG  -0.2820  -0.2800 
5     C4      -0.4446    3.5703   -0.3011 C.2     1  LIG   0.2924   0.0550 
6     C5       0.1153    4.0614    0.9245 C.2     1  LIG   0.2288   0.4750 
7     N1       0.3793    5.3168    1.0715 N.2     1  LIG  -0.3565  -0.5120 
8     N2       0.9048    5.7287    2.2508 N.am    1  LIG  -0.2155  -0.2981 
9     C6       1.2315    4.9279    3.4061 C.3     1  LIG   0.0244   0.3001 
10    C7       1.6926    5.9395    4.4487 C.3     1  LIG   0.0521   0.3001 
11    N3       1.7962    7.1875    3.7214 N.am    1  LIG  -0.4199  -0.6602 
12    C8       1.2674    7.0801    2.4222 C.2     1  LIG   0.7908   0.6900 
13    O2       1.1476    7.9874    1.6091 O.2     1  LIG  -0.5551  -0.5700 
14    C9       2.2446    8.4210    4.3409 C.3     1  LIG   0.0372   0.3001 
15    C10      1.1459    9.0895    5.1552 C.3     1  LIG   0.0945   0.2800 
16    O3       1.6280   10.3012    5.7199 O.3     1  LIG  -0.5875  -0.6800 
17    N4      -1.5575    4.4389   -3.5026 N.pl3   1  LIG   0.2462   0.9600 
18    O4      -2.0302    3.7807   -4.4370 O.2     1  LIG  -0.2040  -0.5200 
19    O5      -1.3589    5.6594   -3.5010 O.3     1  LIG  -0.1662  -0.5200 
20    H1       1.8624   10.8938    4.9851 H       1  LIG   0.4053   0.4000 
21    H2      -0.7144    1.3966   -0.0873 H       1  LIG   0.1746   0.1500 
22    H3      -1.6809    1.5864   -2.6335 H       1  LIG   0.1895   0.1500 
23    H4       0.3003    3.3075    1.7082 H       1  LIG   0.0118   0.0600 
24    H5       0.3566    4.3692    3.7514 H       1  LIG   0.0714   0.0000 
25    H6       2.0385    4.2364    3.1428 H       1  LIG   0.0608   0.0000 
26    H7       0.9515    6.0548    5.2459 H       1  LIG   0.0564   0.0000 
27    H8       2.6604    5.6746    4.8842 H       1  LIG   0.0737   0.0000 
28    H9       3.1197    8.2060    4.9641 H       1  LIG   0.0753   0.0000 
29    H10      2.5768    9.1068    3.5527 H       1  LIG   0.0822   0.0000 
30    H11      0.2707    9.3145    4.5364 H       1  LIG   0.0439   0.0000 
31    H12      0.8170    8.4425    5.9744 H       1  LIG   0.0650   0.0000 
@<TRIPOS>BOND
1     1     5     2
2     1     2     1
3     1     21    1
4     2     3     2
5     2     22    1
6     3     4     1
7     3     17    1
8     4     5     1
9     5     6     1
10    6     7     2
11    6     23    1
12    7     8     1
13    8     12    am
14    8     9     1
15    9     10    1
16    9     24    1
17    9     25    1
18    10    11    1
19    10    26    1
20    10    27    1
21    11    12    am
22    11    14    1
23    12    13    2
24    14    15    1
25    14    28    1
26    14    29    1
27    15    16    1
28    15    30    1
29    15    31    1
30    16    20    1
31    17    18    2
32    17    19    1
@<TRIPOS>SUBSTRUCTURE
1   LIG    1    
 
########## Number      : 431
########## Name        : ZINC00001807
########## Description : AM1BCC_CHARGES =  -0.0000 ORIGINAL_CHARGES =  -0.0000

@<TRIPOS>MOLECULE
ZINC00001807
16    16    1     0     0    
SMALL
USER_CHARGES
****
****
@<TRIPOS>ATOM
1     C1       3.7485   -6.5635   -1.6047 C.2     1  LIG  -0.1928  -0.1500 
2     C2       2.5918   -5.7433   -1.5917 C.2     1  LIG  -0.1512  -0.1500 
3     C3       1.6681   -6.4461   -0.8625 C.2     1  LIG   0.1530   0.2200 
4     O1       2.1561   -7.6311   -0.4239 O.3     1  LIG  -0.3151  -0.2800 
5     C4       3.4441   -7.7051   -0.8827 C.2     1  LIG   0.2000   0.0550 
6     C5       4.2392   -8.8725   -0.5721 C.2     1  LIG   0.4880   0.5940 
7     O2       5.3999   -8.9885   -0.9595 O.2     1  LIG  -0.4687  -0.5700 
8     C6       3.5453   -9.9357    0.2590 C.3     1  LIG  -0.0748   0.3510 
9     Cl1      4.6279  -11.3058    0.5657 Cl      1  LIG  -0.1289  -0.2900 
10    N1       0.3275   -6.1604   -0.4954 N.pl3   1  LIG   0.2432   0.9600 
11    O3      -0.1343   -5.0823   -0.8876 O.2     1  LIG  -0.1845  -0.5200 
12    O4      -0.2705   -7.0044    0.1826 O.3     1  LIG  -0.1679  -0.5200 
13    H1       4.6944   -6.3500   -2.0835 H       1  LIG   0.1940   0.1500 
14    H2       2.4638   -4.7751   -2.0547 H       1  LIG   0.1968   0.1500 
15    H3       3.2496   -9.5196    1.2259 H       1  LIG   0.1044   0.0000 
16    H4       2.6693  -10.3141   -0.2749 H       1  LIG   0.1045   0.0000 
@<TRIPOS>BOND
1     1     5     2
2     1     2     1
3     1     13    1
4     2     3     2
5     2     14    1
6     3     4     1
7     3     10    1
8     4     5     1
9     5     6     1
10    6     7     2
11    6     8     1
12    8     9     1
13    8     15    1
14    8     16    1
15    10    11    2
16    10    12    1
@<TRIPOS>SUBSTRUCTURE
1   LIG    1    
 
########## Number      : 432
########## Name        : ZINC00001809
########## Description : AM1BCC_CHARGES =   2.0001 ORIGINAL_CHARGES =   2.0000

@<TRIPOS>MOLECULE
ZINC00001809
40    41    1     0     0    
SMALL
USER_CHARGES
****
****
@<TRIPOS>ATOM
1     C1       6.4180   -4.1100    1.7475 C.3     1  LIG   0.0823   0.5030 
2     C2       4.3335   -3.9648    0.3816 C.3     1  LIG   0.0789   0.5030 
3     C3       3.5669   -3.0919   -0.6031 C.3     1  LIG   0.0826   0.5030 
4     C4       4.4996   -1.0425    0.4862 C.3     1  LIG   0.0718   0.5030 
5     C5       5.2625   -1.9139    1.4748 C.3     1  LIG   0.0789   0.5030 
6     C6       2.3763   -0.8980   -0.8704 C.3     1  LIG   0.0040   0.5640 
7     C7       1.6979    0.2151   -0.1010 C.2     1  LIG   0.6733   0.5690 
8     O1       1.4599    0.1208    1.1016 O.2     1  LIG  -0.5584  -0.5700 
9     N1       1.3820    1.2969   -0.9020 N.am    1  LIG  -0.2836  -0.3680 
10    N2       0.7723    2.3673   -0.3374 N.2     1  LIG  -0.4340  -0.5120 
11    C8       0.5064    3.3285   -1.1604 C.2     1  LIG   0.3663   0.4750 
12    C9      -0.1367    4.5278   -0.7120 C.2     1  LIG   0.1926   0.0550 
13    C10     -0.5164    5.6676   -1.3981 C.2     1  LIG  -0.1895  -0.1500 
14    C11     -1.1129    6.5392   -0.4513 C.2     1  LIG  -0.1519  -0.1500 
15    C12     -1.0511    5.8643    0.7405 C.2     1  LIG   0.1726   0.2200 
16    O2      -0.4671    4.6490    0.6108 O.3     1  LIG  -0.2884  -0.2800 
17    N3      -1.4788    6.2043    2.0502 N.pl3   1  LIG   0.2434   0.9600 
18    O3      -1.2838    5.3766    2.9481 O.2     1  LIG  -0.1582  -0.5200 
19    O4      -2.0155    7.3103    2.1851 O.3     1  LIG  -0.1533  -0.5200 
20    H1       1.5838    1.3228   -1.8971 H       1  LIG   0.3145   0.3700 
21    H2       7.3316   -3.5606    1.9893 H       1  LIG   0.1314   0.0000 
22    H3       5.8407   -4.3288    2.6497 H       1  LIG   0.1230   0.0000 
23    H4       6.6667   -5.0275    1.2080 H       1  LIG   0.1288   0.0000 
24    H5       4.6483   -4.8977   -0.0971 H       1  LIG   0.1591   0.0000 
25    H6       3.7375   -4.1933    1.2725 H       1  LIG   0.1386   0.0000 
26    H7       4.1469   -2.8901   -1.5107 H       1  LIG   0.1284   0.0000 
27    H8       2.6181   -3.5670   -0.8725 H       1  LIG   0.1591   0.0000 
28    H9       5.0937   -0.8251   -0.4086 H       1  LIG   0.1234   0.0000 
29    H10      4.2002   -0.1037    0.9613 H       1  LIG   0.1911   0.0000 
30    H11      4.6784   -2.1098    2.3811 H       1  LIG   0.1423   0.0000 
31    H12      6.2134   -1.4441    1.7461 H       1  LIG   0.1613   0.0000 
32    H13      3.0141   -0.5155   -1.6735 H       1  LIG   0.1250   0.0000 
33    H14      1.5957   -1.5421   -1.2888 H       1  LIG   0.1386   0.0000 
34    H15      0.7599    3.2695   -2.2347 H       1  LIG   0.0253   0.0600 
35    H16     -0.3801    5.8494   -2.4552 H       1  LIG   0.1883   0.1500 
36    H17     -1.5268    7.5220   -0.6278 H       1  LIG   0.2120   0.1500 
37    N4       5.5831   -3.2477    0.8390 N.4     1  LIG  -0.6890  -0.9590 
38    H18      6.1610   -3.0655    0.0062 H       1  LIG   0.4632   0.4500 
39    N5       3.2421   -1.7595    0.0362 N.4     1  LIG  -0.6830  -0.9590 
40    H19      2.6725   -1.9473    0.8752 H       1  LIG   0.4893   0.4500 
@<TRIPOS>BOND
1     1     21    1
2     1     22    1
3     1     23    1
4     1     37    1
5     2     3     1
6     2     24    1
7     2     25    1
8     2     37    1
9     3     26    1
10    3     27    1
11    3     39    1
12    4     5     1
13    4     28    1
14    4     29    1
15    4     39    1
16    5     30    1
17    5     31    1
18    5     37    1
19    6     7     1
20    6     32    1
21    6     33    1
22    6     39    1
23    7     8     2
24    7     9     am
25    9     10    1
26    9     20    1
27    10    11    2
28    11    12    1
29    11    34    1
30    12    16    1
31    12    13    2
32    13    14    1
33    13    35    1
34    14    15    2
35    14    36    1
36    15    16    1
37    15    17    1
38    17    18    2
39    17    19    1
40    37    38    1
41    39    40    1
@<TRIPOS>SUBSTRUCTURE
1   LIG    1    
 
########## Number      : 433
########## Name        : ZINC00001810
########## Description : AM1BCC_CHARGES =   0.0001 ORIGINAL_CHARGES =   0.0000

@<TRIPOS>MOLECULE
ZINC00001810
41    43    1     0     0    
SMALL
USER_CHARGES
****
****
@<TRIPOS>ATOM
1     C1       4.6102  -11.4322   -0.5853 C.ar    1  LIG  -0.1336  -0.1500 
2     C2       4.0581  -10.4505   -1.3936 C.ar    1  LIG  -0.1019  -0.1500 
3     C3       3.9147   -9.1514   -0.9051 C.ar    1  LIG  -0.1762  -0.1500 
4     C4       4.3184   -8.8012    0.3800 C.ar    1  LIG   0.4168   0.3100 
5     C5       4.9030   -9.7838    1.2022 C.ar    1  LIG  -0.2433   0.0000 
6     C6       5.0250  -11.1047    0.7033 C.ar    1  LIG  -0.0803  -0.1500 
7     C7       5.2990   -9.3671    2.4961 C.ar    1  LIG   0.6660   0.4100 
8     N1       5.0747   -8.1006    2.9209 N.ar    1  LIG  -0.7192  -0.6200 
9     C8       4.5066   -7.2537    2.0488 C.ar    1  LIG   0.6187   0.6730 
10    N2       4.1277   -7.5426    0.7934 N.ar    1  LIG  -0.6773  -0.6200 
11    C9       4.2812   -5.8936    2.4922 C.2     1  LIG   0.2522   0.0870 
12    C10      3.7306   -4.7692    1.9005 C.2     1  LIG  -0.2288  -0.1500 
13    C11      3.7925   -3.7242    2.8577 C.2     1  LIG  -0.1458  -0.1500 
14    C12      4.3768   -4.2893    3.9616 C.2     1  LIG   0.1290   0.2200 
15    O1       4.6808   -5.5948    3.7683 O.3     1  LIG  -0.2815  -0.2800 
16    N3       4.7106   -3.7629    5.2363 N.pl3   1  LIG   0.2454   0.9600 
17    O2       5.2458   -4.5271    6.0481 O.2     1  LIG  -0.1702  -0.5200 
18    O3       4.4364   -2.5726    5.4304 O.3     1  LIG  -0.1999  -0.5200 
19    N4       5.9412  -10.2639    3.3739 N.pl3   1  LIG  -0.7306  -0.8382 
20    C13      7.3430  -10.5609    3.0456 C.3     1  LIG   0.1661   0.3691 
21    C14      8.2972   -9.4460    3.4665 C.3     1  LIG   0.0964   0.2800 
22    O4       9.6213   -9.8085    3.0933 O.3     1  LIG  -0.6018  -0.6800 
23    C15      5.5369  -10.1501    4.7797 C.3     1  LIG   0.1656   0.3691 
24    C16      5.8178  -11.4290    5.5611 C.3     1  LIG   0.1278   0.2800 
25    O5       5.2474  -11.3147    6.8590 O.3     1  LIG  -0.5974  -0.6800 
26    H1      10.2039   -9.0796    3.3677 H       1  LIG   0.4078   0.4000 
27    H2       5.4360  -12.1458    7.3276 H       1  LIG   0.4048   0.4000 
28    H3       4.7154  -12.4490   -0.9515 H       1  LIG   0.1421   0.1500 
29    H4       3.7300  -10.6920   -2.4004 H       1  LIG   0.1420   0.1500 
30    H5       3.4673   -8.3984   -1.5518 H       1  LIG   0.1560   0.1500 
31    H6       5.4399  -11.8959    1.3238 H       1  LIG   0.1557   0.1500 
32    H7       3.3315   -4.7102    0.8972 H       1  LIG   0.1907   0.1500 
33    H8       3.4540   -2.7041    2.7440 H       1  LIG   0.1906   0.1500 
34    H9       7.6469  -11.4991    3.5250 H       1  LIG   0.0719   0.0000 
35    H10      7.4750  -10.7546    1.9739 H       1  LIG   0.0721   0.0000 
36    H11      8.0470   -8.5010    2.9742 H       1  LIG   0.0379   0.0000 
37    H12      8.2774   -9.2927    4.5497 H       1  LIG   0.0349   0.0000 
38    H13      6.0262   -9.2971    5.2666 H       1  LIG   0.0574   0.0000 
39    H14      4.4574   -9.9538    4.8460 H       1  LIG   0.0820   0.0000 
40    H15      5.3759  -12.2974    5.0614 H       1  LIG   0.0345   0.0000 
41    H16      6.8926  -11.5979    5.6763 H       1  LIG   0.0235   0.0000 
@<TRIPOS>BOND
1     1     6     ar
2     1     2     ar
3     1     28    1
4     2     3     ar
5     2     29    1
6     3     4     ar
7     3     30    1
8     4     10    ar
9     4     5     ar
10    5     6     ar
11    5     7     ar
12    6     31    1
13    7     8     ar
14    7     19    1
15    8     9     ar
16    9     10    ar
17    9     11    1
18    11    15    1
19    11    12    2
20    12    13    1
21    12    32    1
22    13    14    2
23    13    33    1
24    14    15    1
25    14    16    1
26    16    17    2
27    16    18    1
28    19    20    1
29    19    23    1
30    20    21    1
31    20    34    1
32    20    35    1
33    21    22    1
34    21    36    1
35    21    37    1
36    22    26    1
37    23    24    1
38    23    38    1
39    23    39    1
40    24    25    1
41    24    40    1
42    24    41    1
43    25    27    1
@<TRIPOS>SUBSTRUCTURE
1   LIG    1    
 
########## Number      : 434
########## Name        : ZINC00001811
########## Description : AM1BCC_CHARGES =   0.0002 ORIGINAL_CHARGES =  -0.0000

@<TRIPOS>MOLECULE
ZINC00001811
26    26    1     0     0    
SMALL
USER_CHARGES
****
****
@<TRIPOS>ATOM
1     C1       5.1007   -5.7257    4.8294 C.3     1  LIG  -0.1210   0.0000 
2     C2       3.6533   -5.4404    4.4605 C.3     1  LIG   0.0620   0.3001 
3     N1       3.3205   -5.9351    3.1262 N.am    1  LIG  -0.2219  -0.2981 
4     C3       2.7564   -7.2154    2.9825 C.2     1  LIG   0.7963   0.6900 
5     O1       2.5127   -7.9802    3.9165 O.2     1  LIG  -0.6263  -0.5700 
6     N2       2.4879   -7.5700    1.6763 N.am    1  LIG  -0.6474  -0.8000 
7     N3       3.5584   -5.2287    1.9678 N.2     1  LIG  -0.4103  -0.5120 
8     C4       4.1440   -4.0799    2.0063 C.2     1  LIG   0.2305   0.4750 
9     C5       4.3819   -3.3499    0.7942 C.2     1  LIG   0.2989   0.0550 
10    C6       4.9826   -2.1232    0.5739 C.2     1  LIG  -0.2787  -0.1500 
11    C7       4.9463   -1.8916   -0.8250 C.2     1  LIG  -0.1284  -0.1500 
12    C8       4.3261   -2.9952   -1.3513 C.2     1  LIG   0.1158   0.2200 
13    O2       3.9756   -3.8896   -0.3965 O.3     1  LIG  -0.2971  -0.2800 
14    N4       3.9952   -3.3567   -2.6830 N.pl3   1  LIG   0.2475   0.9600 
15    O3       3.4247   -4.4403   -2.8561 O.2     1  LIG  -0.1786  -0.5200 
16    O4       4.3080   -2.5504   -3.5671 O.3     1  LIG  -0.2001  -0.5200 
17    H1       2.0814   -8.4693    1.4487 H       1  LIG   0.3345   0.3700 
18    H2       2.6961   -6.9291    0.9186 H       1  LIG   0.3379   0.3700 
19    H3       5.3149   -5.3581    5.8376 H       1  LIG   0.0522   0.0000 
20    H4       5.3040   -6.8016    4.8079 H       1  LIG   0.0601   0.0000 
21    H5       5.7962   -5.2442    4.1353 H       1  LIG   0.0352   0.0000 
22    H6       3.0078   -5.9423    5.1910 H       1  LIG   0.1029   0.0000 
23    H7       3.4159   -4.3751    4.5363 H       1  LIG   0.0499   0.0000 
24    H8       4.4967   -3.5954    2.9302 H       1  LIG   0.0199   0.0600 
25    H9       5.3976   -1.4729    1.3316 H       1  LIG   0.1768   0.1500 
26    H10      5.3245   -1.0332   -1.3619 H       1  LIG   0.1896   0.1500 
@<TRIPOS>BOND
1     1     2     1
2     1     19    1
3     1     20    1
4     1     21    1
5     2     3     1
6     2     22    1
7     2     23    1
8     3     4     am
9     3     7     1
10    4     5     2
11    4     6     am
12    6     17    1
13    6     18    1
14    7     8     2
15    8     9     1
16    8     24    1
17    9     13    1
18    9     10    2
19    10    11    1
20    10    25    1
21    11    12    2
22    11    26    1
23    12    13    1
24    12    14    1
25    14    15    2
26    14    16    1
@<TRIPOS>SUBSTRUCTURE
1   LIG    1    
 
########## Number      : 435
########## Name        : ZINC00001813
########## Description : AM1BCC_CHARGES =   0.0002 ORIGINAL_CHARGES =  -0.0000

@<TRIPOS>MOLECULE
ZINC00001813
21    21    1     0     0    
SMALL
USER_CHARGES
****
****
@<TRIPOS>ATOM
1     C1       0.1707   -4.8173    1.3244 C.3     1  LIG  -0.1799   0.0610 
2     C2       0.6193   -3.3909    1.1518 C.2     1  LIG   0.6820   0.5690 
3     O1       0.3174   -2.5155    1.9590 O.2     1  LIG  -0.5100  -0.5700 
4     N1       1.4057   -3.2192    0.0281 N.am    1  LIG  -0.3418  -0.3680 
5     N2       1.8932   -1.9856   -0.2499 N.2     1  LIG  -0.3554  -0.5120 
6     C3       2.6172   -1.9279   -1.3195 C.2     1  LIG   0.2152   0.4750 
7     C4       3.2054   -0.6941   -1.7492 C.2     1  LIG   0.2965   0.0550 
8     C5       4.0025   -0.3989   -2.8408 C.2     1  LIG  -0.2792  -0.1500 
9     C6       4.2978    0.9867   -2.7731 C.2     1  LIG  -0.1340  -0.1500 
10    C7       3.6579    1.4310   -1.6448 C.2     1  LIG   0.1200   0.2200 
11    O2       2.9920    0.4375   -1.0091 O.3     1  LIG  -0.2822  -0.2800 
12    N3       3.5725    2.7129   -1.0421 N.pl3   1  LIG   0.2465   0.9600 
13    O3       2.9081    2.8138   -0.0040 O.2     1  LIG  -0.1670  -0.5200 
14    O4       4.1756    3.6306   -1.6110 O.3     1  LIG  -0.2052  -0.5200 
15    H1       1.6333   -3.9864   -0.5967 H       1  LIG   0.2972   0.3700 
16    H2      -0.7215   -4.8460    1.9561 H       1  LIG   0.0894   0.0000 
17    H3      -0.0746   -5.2669    0.3580 H       1  LIG   0.0621   0.0000 
18    H4       0.9703   -5.3920    1.7994 H       1  LIG   0.0731   0.0000 
19    H5       2.8135   -2.8182   -1.9446 H       1  LIG   0.0095   0.0600 
20    H6       4.3319   -1.0991   -3.5960 H       1  LIG   0.1745   0.1500 
21    H7       4.8964    1.5685   -3.4597 H       1  LIG   0.1889   0.1500 
@<TRIPOS>BOND
1     1     2     1
2     1     16    1
3     1     17    1
4     1     18    1
5     2     3     2
6     2     4     am
7     4     5     1
8     4     15    1
9     5     6     2
10    6     7     1
11    6     19    1
12    7     11    1
13    7     8     2
14    8     9     1
15    8     20    1
16    9     10    2
17    9     21    1
18    10    11    1
19    10    12    1
20    12    13    2
21    12    14    1
@<TRIPOS>SUBSTRUCTURE
1   LIG    1    
 
########## Number      : 436
########## Name        : ZINC00001814
########## Description : AM1BCC_CHARGES =   0.0001 ORIGINAL_CHARGES =   0.0000

@<TRIPOS>MOLECULE
ZINC00001814
27    27    1     0     0    
SMALL
USER_CHARGES
****
****
@<TRIPOS>ATOM
1     C1       4.6749   -7.5416   -1.1168 C.3     1  LIG  -0.1206   0.0000 
2     C2       3.3805   -7.8228   -1.8657 C.3     1  LIG   0.0945   0.3001 
3     N1       2.2380   -7.0977   -1.3017 N.am    1  LIG  -0.4704  -0.6602 
4     C3       1.2892   -7.8674   -0.4805 C.3     1  LIG   0.0930   0.3001 
5     C4       1.8405   -8.2140    0.8924 C.3     1  LIG  -0.1207   0.0000 
6     C5       2.1015   -5.7391   -1.6168 C.2     1  LIG   0.6732   0.5438 
7     O1       2.8351   -5.1115   -2.3793 O.2     1  LIG  -0.5902  -0.5700 
8     C6       1.0088   -4.9825   -0.9979 C.ar    1  LIG  -0.2460   0.0862 
9     C7      -0.0876   -4.5893   -1.7598 C.ar    1  LIG  -0.0576  -0.1500 
10    C8      -1.0936   -3.8459   -1.1537 C.ar    1  LIG  -0.2495  -0.1500 
11    C9      -0.9478   -3.5197    0.1871 C.ar    1  LIG   0.4044   0.1600 
12    N2       0.1158   -3.8738    0.9457 N.ar    1  LIG  -0.6643  -0.6200 
13    C10      1.0800   -4.5947    0.3318 C.ar    1  LIG   0.4203   0.1600 
14    H1       5.5016   -8.0974   -1.5700 H       1  LIG   0.0424   0.0000 
15    H2       4.9272   -6.4768   -1.1441 H       1  LIG   0.0580   0.0000 
16    H3       4.6026   -7.8367   -0.0662 H       1  LIG   0.0336   0.0000 
17    H4       3.5013   -7.5149   -2.9108 H       1  LIG   0.0664   0.0000 
18    H5       3.1665   -8.8970   -1.8654 H       1  LIG   0.0445   0.0000 
19    H6       0.3525   -7.3168   -0.3617 H       1  LIG   0.0574   0.0000 
20    H7       1.0381   -8.7833   -1.0279 H       1  LIG   0.0459   0.0000 
21    H8       1.0718   -8.7088    1.4942 H       1  LIG   0.0457   0.0000 
22    H9       2.6918   -8.8970    0.8157 H       1  LIG   0.0427   0.0000 
23    H10      2.1732   -7.3194    1.4270 H       1  LIG   0.0416   0.0000 
24    H11     -0.1656   -4.8572   -2.8094 H       1  LIG   0.1516   0.1500 
25    H12     -1.9662   -3.5273   -1.7128 H       1  LIG   0.1486   0.1500 
26    H13     -1.7079   -2.9411    0.7027 H       1  LIG   0.0258   0.1500 
27    H14      1.9292   -4.8509    0.9566 H       1  LIG   0.0298   0.1500 
@<TRIPOS>BOND
1     1     2     1
2     1     14    1
3     1     15    1
4     1     16    1
5     2     3     1
6     2     17    1
7     2     18    1
8     3     4     1
9     3     6     am
10    4     5     1
11    4     19    1
12    4     20    1
13    5     21    1
14    5     22    1
15    5     23    1
16    6     7     2
17    6     8     1
18    8     13    ar
19    8     9     ar
20    9     10    ar
21    9     24    1
22    10    11    ar
23    10    25    1
24    11    12    ar
25    11    26    1
26    12    13    ar
27    13    27    1
@<TRIPOS>SUBSTRUCTURE
1   LIG    1    
 
########## Number      : 437
########## Name        : ZINC00001817
########## Description : AM1BCC_CHARGES =   1.0000 ORIGINAL_CHARGES =   1.0000

@<TRIPOS>MOLECULE
ZINC00001817
31    32    1     0     0    
SMALL
USER_CHARGES
****
****
@<TRIPOS>ATOM
1     C1       5.9595   -7.5618    0.0443 C.2     1  LIG   0.4521   0.0772 
2     C2       5.6268   -6.2893   -0.3549 C.2     1  LIG  -0.3453  -0.0716 
3     N1       4.3514   -6.0676    0.1090 N.pl3   1  LIG  -0.2049   0.0476 
4     C3       3.9887   -7.2121    0.7760 C.2     1  LIG   0.4451   0.0365 
5     N2       4.9337   -8.1267    0.7528 N.2     1  LIG  -0.6322  -0.5653 
6     C4       3.5267   -4.8831   -0.0845 C.3     1  LIG   0.0241   0.2556 
7     C5       2.0863   -4.9768    0.4222 C.3     1  LIG   0.0881   0.5030 
8     C6       0.1021   -3.5968    1.0800 C.3     1  LIG   0.0709   0.5030 
9     C7      -0.5589   -2.2410    0.8844 C.3     1  LIG   0.0988   0.2800 
10    O1      -0.8816   -2.0336   -0.4909 O.3     1  LIG  -0.3668  -0.5600 
11    C8       0.2938   -2.0301   -1.3013 C.3     1  LIG   0.0980   0.2800 
12    C9       1.0054   -3.3736   -1.2247 C.3     1  LIG   0.0665   0.5030 
13    N3       6.4195   -5.3730   -1.1068 N.pl3   1  LIG   0.3615   0.9600 
14    O2       6.0756   -4.1867   -1.1322 O.2     1  LIG  -0.2550  -0.5200 
15    O3       7.4131   -5.8448   -1.6724 O.3     1  LIG  -0.1328  -0.5200 
16    H1       6.8794   -8.1019   -0.1329 H       1  LIG   0.0931   0.1500 
17    H2       3.0297   -7.3400    1.2591 H       1  LIG   0.0716   0.1500 
18    H3       3.5308   -4.6893   -1.1618 H       1  LIG   0.0993   0.0000 
19    H4       4.0402   -4.0629    0.4301 H       1  LIG   0.0944   0.0000 
20    H5       2.0807   -5.1767    1.4996 H       1  LIG   0.1096   0.0000 
21    H6       1.5113   -5.7566   -0.0895 H       1  LIG   0.1175   0.0000 
22    H7      -0.5483   -4.4151    0.7523 H       1  LIG   0.1187   0.0000 
23    H8       0.4014   -3.7416    2.1224 H       1  LIG   0.1119   0.0000 
24    H9      -1.4925   -2.1995    1.4541 H       1  LIG   0.1349   0.0000 
25    H10      0.0813   -1.4243    1.2388 H       1  LIG   0.0694   0.0000 
26    H11     -0.0154   -1.8349   -2.3329 H       1  LIG   0.1359   0.0000 
27    H12      0.9504   -1.2080   -0.9921 H       1  LIG   0.0706   0.0000 
28    H13      1.9308   -3.3509   -1.8046 H       1  LIG   0.1176   0.0000 
29    H14      0.3608   -4.1910   -1.5651 H       1  LIG   0.1184   0.0000 
30    N4       1.3565   -3.6600    0.2242 N.4     1  LIG  -0.6819  -0.9590 
31    H15      1.9800   -2.9088    0.5519 H       1  LIG   0.4509   0.4500 
@<TRIPOS>BOND
1     1     5     1
2     1     2     2
3     1     16    1
4     2     3     1
5     2     13    1
6     3     4     1
7     3     6     1
8     4     5     2
9     4     17    1
10    6     7     1
11    6     18    1
12    6     19    1
13    7     20    1
14    7     21    1
15    7     30    1
16    8     9     1
17    8     22    1
18    8     23    1
19    8     30    1
20    9     10    1
21    9     24    1
22    9     25    1
23    10    11    1
24    11    12    1
25    11    26    1
26    11    27    1
27    12    28    1
28    12    29    1
29    12    30    1
30    13    14    2
31    13    15    1
32    30    31    1
@<TRIPOS>SUBSTRUCTURE
1   LIG    1    
 
########## Number      : 438
########## Name        : ZINC00001825
########## Description : AM1BCC_CHARGES =   0.0000 ORIGINAL_CHARGES =   0.0000

@<TRIPOS>MOLECULE
ZINC00001825
32    34    1     0     0    
SMALL
USER_CHARGES
****
****
@<TRIPOS>ATOM
1     C1       6.1177   -4.2237    2.1030 C.3     1  LIG   0.1372   0.2800 
2     O1       5.9682   -2.9209    1.5288 O.3     1  LIG  -0.4296  -0.4300 
3     C2       4.7247   -2.3654    1.6399 C.2     1  LIG   0.7525   0.7800 
4     O2       3.7740   -2.9133    2.1871 O.2     1  LIG  -0.5858  -0.5700 
5     N1       4.7335   -1.1224    1.0464 N.am    1  LIG  -0.4475  -0.4940 
6     C3       3.6352   -0.2937    0.9839 C.2     1  LIG   0.4822   0.2505 
7     N2       2.4040   -0.6089    1.5058 N.pl3   1  LIG  -0.2777   0.0332 
8     C4       1.5518    0.4374    1.2667 C.ar    1  LIG  -0.0550  -0.1516 
9     C5       0.2083    0.6438    1.5831 C.ar    1  LIG  -0.1329  -0.1500 
10    C6      -0.3558    1.8572    1.1766 C.ar    1  LIG  -0.0790  -0.1500 
11    C7       0.4037    2.8015    0.4754 C.ar    1  LIG  -0.1835   0.0862 
12    C8       1.7593    2.5830    0.1824 C.ar    1  LIG  -0.0448  -0.1500 
13    C9       2.3318    1.3660    0.5872 C.ar    1  LIG   0.0728   0.2272 
14    N3       3.6148    0.8987    0.4236 N.2     1  LIG  -0.5922  -0.5653 
15    C10     -0.2372    4.0779    0.0923 C.2     1  LIG   0.6242   0.5688 
16    O3      -0.7278    4.7336    1.0105 O.2     1  LIG  -0.5219  -0.5700 
17    C11     -0.2630    4.5133   -1.2952 C.2     1  LIG  -0.2288  -0.0450 
18    C12     -0.5272    5.7939   -1.7455 C.2     1  LIG  -0.0878  -0.1500 
19    C13     -0.5053    5.8922   -3.1664 C.2     1  LIG  -0.1725  -0.1500 
20    C14     -0.2436    4.6794   -3.7607 C.2     1  LIG  -0.1678  -0.1100 
21    S1      -0.0349    3.4353   -2.6081 S.3     1  LIG   0.0955  -0.0800 
22    H1       5.5918   -0.7830    0.6261 H       1  LIG   0.3723   0.3700 
23    H2       2.1727   -1.4681    1.9863 H       1  LIG   0.3388   0.2700 
24    H3       7.1500   -4.5475    1.9455 H       1  LIG   0.0720   0.0000 
25    H4       5.9217   -4.1887    3.1789 H       1  LIG   0.0543   0.0000 
26    H5       5.4483   -4.9347    1.6095 H       1  LIG   0.0529   0.0000 
27    H6      -0.3734   -0.0969    2.1205 H       1  LIG   0.1445   0.1500 
28    H7      -1.4002    2.0545    1.4090 H       1  LIG   0.1486   0.1500 
29    H8       2.3598    3.3249   -0.3340 H       1  LIG   0.1571   0.1500 
30    H9      -0.7221    6.6292   -1.0838 H       1  LIG   0.1703   0.1500 
31    H10     -0.6774    6.8047   -3.7226 H       1  LIG   0.1577   0.1500 
32    H11     -0.1724    4.4637   -4.8175 H       1  LIG   0.1739   0.1500 
@<TRIPOS>BOND
1     1     2     1
2     1     24    1
3     1     25    1
4     1     26    1
5     2     3     1
6     3     4     2
7     3     5     am
8     5     6     1
9     5     22    1
10    6     14    2
11    6     7     1
12    7     8     1
13    7     23    1
14    8     13    ar
15    8     9     ar
16    9     10    ar
17    9     27    1
18    10    11    ar
19    10    28    1
20    11    12    ar
21    11    15    1
22    12    13    ar
23    12    29    1
24    13    14    1
25    15    16    2
26    15    17    1
27    17    21    1
28    17    18    2
29    18    19    1
30    18    30    1
31    19    20    2
32    19    31    1
33    20    21    1
34    20    32    1
@<TRIPOS>SUBSTRUCTURE
1   LIG    1    
 
########## Number      : 439
########## Name        : ZINC00001826
########## Description : AM1BCC_CHARGES =   1.0000 ORIGINAL_CHARGES =   1.0000

@<TRIPOS>MOLECULE
ZINC00001826
30    32    1     0     0    
SMALL
USER_CHARGES
****
****
@<TRIPOS>ATOM
1     C1       4.4038  -10.2968   -0.2158 C.ar    1  LIG  -0.0432  -0.1500 
2     C2       5.1676   -9.8664   -1.2859 C.ar    1  LIG  -0.1234  -0.1500 
3     C3       5.6610   -8.5697   -1.2886 C.ar    1  LIG  -0.0753   0.2110 
4     N1       5.4147   -7.7094   -0.2687 N.ar    1  LIG   0.0338  -0.0830 
5     C4       5.9124   -6.4503   -0.3045 C.ar    1  LIG  -0.0282   0.2110 
6     C5       5.6803   -5.5390    0.7194 C.ar    1  LIG  -0.1813  -0.1500 
7     C6       4.9249   -5.9054    1.8271 C.ar    1  LIG   0.2851   0.1000 
8     C7       4.4154   -7.2071    1.8540 C.ar    1  LIG  -0.2655  -0.1500 
9     C8       4.6592   -8.1145    0.8063 C.ar    1  LIG   0.1015   0.3610 
10    C9       4.1478   -9.4231    0.8316 C.ar    1  LIG  -0.1493  -0.1500 
11    N2       4.6194   -5.0331    2.8877 N.pl3   1  LIG  -0.5918  -0.6000 
12    C10      4.5738   -3.6277    2.9806 C.ar    1  LIG   0.0923   0.1000 
13    C11      4.3919   -2.7873    1.8757 C.ar    1  LIG  -0.1387  -0.1500 
14    C12      4.3885   -1.3962    2.0205 C.ar    1  LIG  -0.0980  -0.1500 
15    C13      4.5731   -0.8184    3.2768 C.ar    1  LIG   0.0268   0.1770 
16    C14      4.7584   -1.6384    4.3912 C.ar    1  LIG   0.0330   0.1770 
17    C15      4.7590   -3.0306    4.2397 C.ar    1  LIG  -0.1234  -0.1500 
18    Cl1      4.9948   -0.9972    5.9785 Cl      1  LIG  -0.0215  -0.1770 
19    Cl2      4.5592    0.9050    3.3880 Cl      1  LIG  -0.0180  -0.1770 
20    H1       4.3902   -5.5062    3.7574 H       1  LIG   0.4699   0.4000 
21    H2       4.0081  -11.3080   -0.1950 H       1  LIG   0.1825   0.1500 
22    H3       5.3792  -10.5346   -2.1148 H       1  LIG   0.1914   0.1500 
23    H4       6.2632   -8.2039   -2.1149 H       1  LIG   0.1945   0.1500 
24    H5       6.5097   -6.1748   -1.1688 H       1  LIG   0.1995   0.1500 
25    H6       6.1305   -4.5539    0.6425 H       1  LIG   0.1980   0.1500 
26    H7       3.8099   -7.5245    2.7025 H       1  LIG   0.1828   0.1500 
27    H8       3.5467   -9.7660    1.6709 H       1  LIG   0.1838   0.1500 
28    H9       4.2157   -3.1959    0.8845 H       1  LIG   0.1476   0.1500 
29    H10      4.2351   -0.7755    1.1407 H       1  LIG   0.1702   0.1500 
30    H11      4.9129   -3.6640    5.1123 H       1  LIG   0.1649   0.1500 
@<TRIPOS>BOND
1     1     10    ar
2     1     2     ar
3     1     21    1
4     2     3     ar
5     2     22    1
6     3     4     ar
7     3     23    1
8     4     9     ar
9     4     5     ar
10    5     6     ar
11    5     24    1
12    6     7     ar
13    6     25    1
14    7     8     ar
15    7     11    1
16    8     9     ar
17    8     26    1
18    9     10    ar
19    10    27    1
20    11    12    1
21    11    20    1
22    12    17    ar
23    12    13    ar
24    13    14    ar
25    13    28    1
26    14    15    ar
27    14    29    1
28    15    16    ar
29    15    19    1
30    16    17    ar
31    16    18    1
32    17    30    1
@<TRIPOS>SUBSTRUCTURE
1   LIG    1    
 
########## Number      : 440
########## Name        : ZINC00001831
########## Description : AM1BCC_CHARGES =   0.0002 ORIGINAL_CHARGES =   0.0000

@<TRIPOS>MOLECULE
ZINC00001831
30    32    1     0     0    
SMALL
USER_CHARGES
****
****
@<TRIPOS>ATOM
1     C1       6.0145   -9.4694    1.3521 C.ar    1  LIG  -0.1139  -0.1500 
2     C2       6.1015   -8.8103    0.1259 C.ar    1  LIG  -0.1389  -0.1500 
3     C3       5.6604   -7.4921    0.0069 C.ar    1  LIG  -0.0873  -0.1500 
4     C4       5.1392   -6.8296    1.1241 C.ar    1  LIG  -0.1469   0.0862 
5     C5       5.0387   -7.4953    2.3514 C.ar    1  LIG  -0.1050  -0.1500 
6     C6       5.4817   -8.8139    2.4621 C.ar    1  LIG  -0.1363  -0.1500 
7     C7       4.6565   -5.4243    0.9790 C.2     1  LIG   0.5419   0.2776 
8     N1       3.9551   -5.1625   -0.0711 N.2     1  LIG  -0.5806  -0.6960 
9     C8       3.4585   -3.8163   -0.2687 C.3     1  LIG   0.0427   0.3070 
10    C9       2.3550   -3.5625    0.7266 C.2     1  LIG   0.6866   0.5690 
11    O1       1.1805   -3.4603    0.3693 O.2     1  LIG  -0.6078  -0.5700 
12    N2       2.7397   -3.3627    2.0332 N.am    1  LIG  -0.4726  -0.5470 
13    C10      4.0240   -3.5582    2.5789 C.ar    1  LIG   0.0872   0.1170 
14    C11      4.9846   -4.4398    2.0554 C.ar    1  LIG  -0.2093   0.0862 
15    C12      6.2669   -4.4906    2.6281 C.ar    1  LIG  -0.0712  -0.1500 
16    C13      6.5644   -3.7157    3.7485 C.ar    1  LIG  -0.0135   0.1770 
17    C14      5.5950   -2.8947    4.3149 C.ar    1  LIG  -0.0835  -0.1500 
18    C15      4.3282   -2.8229    3.7346 C.ar    1  LIG  -0.1722  -0.1500 
19    Cl1      8.1340   -3.7963    4.4516 Cl      1  LIG  -0.0813  -0.1770 
20    H1       2.0329   -2.9659    2.6460 H       1  LIG   0.3259   0.3700 
21    H2       6.3574  -10.4963    1.4414 H       1  LIG   0.1344   0.1500 
22    H3       6.5122   -9.3247   -0.7383 H       1  LIG   0.1362   0.1500 
23    H4       5.7362   -6.9920   -0.9550 H       1  LIG   0.1481   0.1500 
24    H5       4.6093   -7.0098    3.2234 H       1  LIG   0.1405   0.1500 
25    H6       5.4066   -9.3330    3.4135 H       1  LIG   0.1360   0.1500 
26    H7       4.2431   -3.0545   -0.1956 H       1  LIG   0.0710   0.0000 
27    H8       3.0390   -3.7368   -1.2775 H       1  LIG   0.1078   0.0000 
28    H9       7.0309   -5.1458    2.2152 H       1  LIG   0.1636   0.1500 
29    H10      5.8130   -2.2987    5.1972 H       1  LIG   0.1536   0.1500 
30    H11      3.5899   -2.1568    4.1766 H       1  LIG   0.1450   0.1500 
@<TRIPOS>BOND
1     1     6     ar
2     1     2     ar
3     1     21    1
4     2     3     ar
5     2     22    1
6     3     4     ar
7     3     23    1
8     4     5     ar
9     4     7     1
10    5     6     ar
11    5     24    1
12    6     25    1
13    7     14    1
14    7     8     2
15    8     9     1
16    9     10    1
17    9     26    1
18    9     27    1
19    10    11    2
20    10    12    am
21    12    13    1
22    12    20    1
23    13    18    ar
24    13    14    ar
25    14    15    ar
26    15    16    ar
27    15    28    1
28    16    17    ar
29    16    19    1
30    17    18    ar
31    17    29    1
32    18    30    1
@<TRIPOS>SUBSTRUCTURE
1   LIG    1    
 
########## Number      : 441
########## Name        : ZINC00001833
########## Description : AM1BCC_CHARGES =  -0.0003 ORIGINAL_CHARGES =   0.0000

@<TRIPOS>MOLECULE
ZINC00001833
53    56    1     0     0    
SMALL
USER_CHARGES
****
****
@<TRIPOS>ATOM
1     C1       6.7831  -12.0402    0.7156 C.3     1  LIG  -0.1520   0.0610 
2     C2       5.4264  -11.4031    0.6853 C.2     1  LIG   0.6384   0.6590 
3     O1       4.4061  -11.9629    1.0597 O.2     1  LIG  -0.5292  -0.5700 
4     O2       5.5398  -10.1358    0.2002 O.3     1  LIG  -0.4436  -0.4300 
5     C3       4.3988   -9.2347    0.0139 C.3     1  LIG   0.2616   0.4800 
6     C4       4.8924   -8.0987   -0.9394 C.3     1  LIG  -0.0727   0.0000 
7     C5       5.3817   -6.9297   -0.0480 C.3     1  LIG  -0.0728   0.0000 
8     C6       5.2876   -7.4747    1.3772 C.3     1  LIG  -0.0652   0.0000 
9     C7       4.1011   -8.4422    1.3205 C.3     1  LIG  -0.0500   0.0000 
10    C8       4.1126   -9.2574    2.6274 C.3     1  LIG  -0.0642   0.0000 
11    C9       4.0598   -8.3533    3.8734 C.3     1  LIG  -0.0741   0.0000 
12    C10      5.1550   -7.2495    3.8672 C.3     1  LIG  -0.0535   0.0000 
13    C11      5.1668   -6.4686    2.5294 C.3     1  LIG  -0.0498   0.0000 
14    C12      6.3471   -5.4809    2.5226 C.3     1  LIG  -0.0732   0.0000 
15    C13      6.2152   -4.4896    3.6722 C.3     1  LIG  -0.0542   0.1382 
16    C14      6.0225   -5.1763    5.0027 C.2     1  LIG  -0.0324  -0.2764 
17    C15      6.7388   -4.7691    6.0636 C.2     1  LIG  -0.2663  -0.1356 
18    C16      6.4440   -5.2839    7.4197 C.2     1  LIG   0.5698   0.4946 
19    O3       7.1588   -4.9670    8.3673 O.2     1  LIG  -0.5352  -0.5700 
20    C17      5.1982   -6.1100    7.5945 C.3     1  LIG  -0.1823   0.0610 
21    C18      5.0180   -7.0276    6.3986 C.3     1  LIG  -0.0712   0.0000 
22    C19      4.9552   -6.2616    5.0525 C.3     1  LIG  -0.0349   0.1382 
23    C20      2.7201   -7.7256    1.2166 C.3     1  LIG  -0.0863   0.0000 
24    C21      3.2639   -9.9577   -0.5875 C.1     1  LIG  -0.1553  -0.2000 
25    C22      2.3405  -10.5390   -1.0896 C.1     1  LIG  -0.1131  -0.1770 
26    H1       7.2057  -12.0620   -0.2921 H       1  LIG   0.0747   0.0000 
27    H2       7.4361  -11.4876    1.3958 H       1  LIG   0.0732   0.0000 
28    H3       6.6929  -13.0690    1.0757 H       1  LIG   0.0756   0.0000 
29    H4       5.7097   -8.4471   -1.5819 H       1  LIG   0.0671   0.0000 
30    H5       4.0930   -7.7310   -1.5945 H       1  LIG   0.0592   0.0000 
31    H6       6.4039   -6.6357   -0.3078 H       1  LIG   0.0476   0.0000 
32    H7       4.7373   -6.0544   -0.1875 H       1  LIG   0.0448   0.0000 
33    H8       6.2499   -7.9947    1.5462 H       1  LIG   0.0591   0.0000 
34    H9       3.2752   -9.9644    2.6533 H       1  LIG   0.0688   0.0000 
35    H10      5.0323   -9.8463    2.7097 H       1  LIG   0.0411   0.0000 
36    H11      3.0673   -7.8991    3.9689 H       1  LIG   0.0422   0.0000 
37    H12      4.1857   -8.9981    4.7511 H       1  LIG   0.0439   0.0000 
38    H13      6.1111   -7.7962    3.9739 H       1  LIG   0.0548   0.0000 
39    H14      4.2633   -5.8480    2.4241 H       1  LIG   0.0555   0.0000 
40    H15      7.2979   -6.0229    2.6063 H       1  LIG   0.0485   0.0000 
41    H16      6.3769   -4.9243    1.5789 H       1  LIG   0.0468   0.0000 
42    H17      7.0965   -3.8368    3.6802 H       1  LIG   0.0548   0.0000 
43    H18      5.3480   -3.8412    3.4919 H       1  LIG   0.0562   0.0000 
44    H19      7.4981   -3.9982    5.9903 H       1  LIG   0.1478   0.1500 
45    H20      5.2986   -6.7112    8.5044 H       1  LIG   0.0733   0.0000 
46    H21      4.3428   -5.4370    7.7158 H       1  LIG   0.0687   0.0000 
47    H22      5.8484   -7.7468    6.3765 H       1  LIG   0.0522   0.0000 
48    H23      4.0989   -7.6076    6.5419 H       1  LIG   0.0504   0.0000 
49    H24      3.9511   -5.8050    5.0025 H       1  LIG   0.0636   0.0000 
50    H25      2.5306   -7.0274    2.0351 H       1  LIG   0.0388   0.0000 
51    H26      2.6192   -7.1520    0.2895 H       1  LIG   0.0372   0.0000 
52    H27      1.9013   -8.4542    1.2400 H       1  LIG   0.0486   0.0000 
53    H28      1.5222  -11.0568   -1.5326 H       1  LIG   0.1669   0.1770 
@<TRIPOS>BOND
1     1     2     1
2     1     26    1
3     1     27    1
4     1     28    1
5     2     3     2
6     2     4     1
7     4     5     1
8     5     9     1
9     5     6     1
10    5     24    1
11    6     7     1
12    6     29    1
13    6     30    1
14    7     8     1
15    7     31    1
16    7     32    1
17    8     13    1
18    8     9     1
19    8     33    1
20    9     10    1
21    9     23    1
22    10    11    1
23    10    34    1
24    10    35    1
25    11    12    1
26    11    36    1
27    11    37    1
28    12    22    1
29    12    13    1
30    12    38    1
31    13    14    1
32    13    39    1
33    14    15    1
34    14    40    1
35    14    41    1
36    15    16    1
37    15    42    1
38    15    43    1
39    16    22    1
40    16    17    2
41    17    18    1
42    17    44    1
43    18    19    2
44    18    20    1
45    20    21    1
46    20    45    1
47    20    46    1
48    21    22    1
49    21    47    1
50    21    48    1
51    22    49    1
52    23    50    1
53    23    51    1
54    23    52    1
55    24    25    3
56    25    53    1
@<TRIPOS>SUBSTRUCTURE
1   LIG    1    
 
########## Number      : 442
########## Name        : ZINC00001834
########## Description : AM1BCC_CHARGES =  -0.0000 ORIGINAL_CHARGES =   0.0000

@<TRIPOS>MOLECULE
ZINC00001834
29    30    1     0     0    
SMALL
USER_CHARGES
****
****
@<TRIPOS>ATOM
1     C1       5.8140   -9.2945   -0.3337 C.ar    1  LIG  -0.1267  -0.1500 
2     C2       6.3021   -8.2104   -1.0609 C.ar    1  LIG  -0.1316  -0.1500 
3     C3       5.4379   -7.1890   -1.4588 C.ar    1  LIG  -0.1124  -0.1500 
4     C4       4.0747   -7.2483   -1.1391 C.ar    1  LIG  -0.0725  -0.1435 
5     C5       3.5962   -8.3365   -0.3969 C.ar    1  LIG  -0.1159  -0.1500 
6     C6       4.4622   -9.3567   -0.0000 C.ar    1  LIG  -0.1315  -0.1500 
7     C7       3.1454   -6.1336   -1.5460 C.3     1  LIG   0.1502   0.3895 
8     N1       3.0876   -5.0952   -0.5131 N.2     1  LIG  -0.5790  -0.6960 
9     C8       2.3001   -4.1167   -0.8107 C.2     1  LIG   0.4633   0.3038 
10    C9       2.0967   -2.9710    0.1012 C.ar    1  LIG  -0.2206   0.0862 
11    C10      2.6243   -3.0333    1.3988 C.ar    1  LIG  -0.0550  -0.1500 
12    C11      2.4110   -1.9862    2.2976 C.ar    1  LIG  -0.1724  -0.1500 
13    C12      1.6684   -0.8735    1.9101 C.ar    1  LIG  -0.0859  -0.1500 
14    C13      1.1445   -0.8021    0.6204 C.ar    1  LIG  -0.1645  -0.1500 
15    C14      1.3647   -1.8423   -0.2863 C.ar    1  LIG   0.1400   0.0825 
16    O1       0.8329   -1.6652   -1.5336 O.3     1  LIG  -0.5002  -0.5325 
17    H1       1.2788   -2.2451   -2.1701 H       1  LIG   0.4197   0.4500 
18    H2       6.4874  -10.0882   -0.0234 H       1  LIG   0.1307   0.1500 
19    H3       7.3568   -8.1582   -1.3158 H       1  LIG   0.1313   0.1500 
20    H4       5.8342   -6.3454   -2.0184 H       1  LIG   0.1331   0.1500 
21    H5       2.5458   -8.3942   -0.1225 H       1  LIG   0.1314   0.1500 
22    H6       4.0823  -10.1983    0.5722 H       1  LIG   0.1311   0.1500 
23    H7       3.4909   -5.7089   -2.4979 H       1  LIG   0.0524   0.0000 
24    H8       2.1457   -6.5501   -1.7282 H       1  LIG   0.0450   0.0000 
25    H9       1.7459   -4.1192   -1.7643 H       1  LIG  -0.0407   0.0600 
26    H10      3.1963   -3.8951    1.7339 H       1  LIG   0.1564   0.1500 
27    H11      2.8202   -2.0428    3.3024 H       1  LIG   0.1372   0.1500 
28    H12      1.4996   -0.0611    2.6111 H       1  LIG   0.1356   0.1500 
29    H13      0.5718    0.0725    0.3226 H       1  LIG   0.1515   0.1500 
@<TRIPOS>BOND
1     1     6     ar
2     1     2     ar
3     1     18    1
4     2     3     ar
5     2     19    1
6     3     4     ar
7     3     20    1
8     4     5     ar
9     4     7     1
10    5     6     ar
11    5     21    1
12    6     22    1
13    7     8     1
14    7     23    1
15    7     24    1
16    8     9     2
17    9     10    1
18    9     25    1
19    10    15    ar
20    10    11    ar
21    11    12    ar
22    11    26    1
23    12    13    ar
24    12    27    1
25    13    14    ar
26    13    28    1
27    14    15    ar
28    14    29    1
29    15    16    1
30    16    17    1
@<TRIPOS>SUBSTRUCTURE
1   LIG    1    
 
########## Number      : 443
########## Name        : ZINC00001840
########## Description : AM1BCC_CHARGES =  -0.0003 ORIGINAL_CHARGES =   0.0000

@<TRIPOS>MOLECULE
ZINC00001840
46    49    1     0     0    
SMALL
USER_CHARGES
****
****
@<TRIPOS>ATOM
1     C1       0.0195    4.0155    1.2709 C.3     1  LIG  -0.0860   0.0000 
2     C2      -1.1318    3.9413    0.2356 C.3     1  LIG  -0.0165   0.1382 
3     C3      -2.0438    2.7314    0.5836 C.3     1  LIG  -0.0693   0.0000 
4     C4      -2.8370    2.9329    1.8686 C.3     1  LIG  -0.1815   0.0610 
5     C5      -3.5887    4.2411    1.8577 C.2     1  LIG   0.5666   0.4946 
6     O1      -4.5937    4.4111    2.5462 O.2     1  LIG  -0.5328  -0.5700 
7     C6      -3.0653    5.3626    1.0412 C.2     1  LIG  -0.2467  -0.1356 
8     C7      -1.9462    5.2339    0.3097 C.2     1  LIG  -0.0055  -0.1382 
9     C8      -1.4572    6.3637   -0.4643 C.2     1  LIG  -0.1479  -0.1500 
10    C9      -0.4600    6.2633   -1.3542 C.2     1  LIG  -0.1337  -0.2882 
11    C10      0.2225    4.9561   -1.6944 C.3     1  LIG  -0.0213   0.1382 
12    C11     -0.6202    3.7550   -1.2457 C.3     1  LIG  -0.0524   0.0000 
13    C12      0.1983    2.4493   -1.4383 C.3     1  LIG  -0.0740   0.0000 
14    C13      1.1497    2.5064   -2.6415 C.3     1  LIG  -0.0741   0.0000 
15    C14      0.6355    3.4086   -3.7721 C.3     1  LIG   0.1613   0.2800 
16    C15      0.6014    4.8661   -3.2128 C.3     1  LIG  -0.0825   0.0000 
17    C16     -0.1610    5.6942   -4.2432 C.3     1  LIG  -0.0737   0.0000 
18    C17      0.4495    5.4882   -5.6375 C.3     1  LIG  -0.1666   0.0610 
19    C18      1.4790    4.3771   -5.8206 C.2     1  LIG   0.7129   0.6590 
20    O2       2.1987    4.3468   -6.8174 O.2     1  LIG  -0.5851  -0.5700 
21    O3       1.5700    3.4114   -4.8659 O.3     1  LIG  -0.4126  -0.4300 
22    C19     -0.6912    2.8205   -4.3188 C.3     1  LIG  -0.1119   0.0000 
23    H1       0.5474    3.0624    1.3689 H       1  LIG   0.0412   0.0000 
24    H2       0.7590    4.7832    1.0250 H       1  LIG   0.0437   0.0000 
25    H3      -0.3576    4.2680    2.2691 H       1  LIG   0.0441   0.0000 
26    H4      -2.7571    2.5640   -0.2357 H       1  LIG   0.0499   0.0000 
27    H5      -1.4549    1.8109    0.6760 H       1  LIG   0.0514   0.0000 
28    H6      -3.5640    2.1191    1.9684 H       1  LIG   0.0757   0.0000 
29    H7      -2.1863    2.9144    2.7485 H       1  LIG   0.0732   0.0000 
30    H8      -3.6310    6.2881    1.0796 H       1  LIG   0.1502   0.1500 
31    H9      -1.9085    7.3374   -0.2905 H       1  LIG   0.1365   0.1500 
32    H10     -0.0994    7.1736   -1.8251 H       1  LIG   0.1317   0.1500 
33    H11      1.1559    4.9852   -1.1008 H       1  LIG   0.0677   0.0000 
34    H12     -1.5009    3.6637   -1.9015 H       1  LIG   0.0569   0.0000 
35    H13      0.7969    2.2004   -0.5579 H       1  LIG   0.0514   0.0000 
36    H14     -0.5005    1.6144   -1.5748 H       1  LIG   0.0454   0.0000 
37    H15      2.1339    2.8685   -2.3128 H       1  LIG   0.0576   0.0000 
38    H16      1.3410    1.4913   -3.0125 H       1  LIG   0.0647   0.0000 
39    H17      1.6137    5.3228   -3.2324 H       1  LIG   0.0642   0.0000 
40    H18     -1.2265    5.4360   -4.2499 H       1  LIG   0.0577   0.0000 
41    H19     -0.1170    6.7638   -4.0101 H       1  LIG   0.0538   0.0000 
42    H20     -0.3523    5.3282   -6.3670 H       1  LIG   0.0817   0.0000 
43    H21      0.9586    6.4197   -5.9168 H       1  LIG   0.0843   0.0000 
44    H22     -0.5328    1.7698   -4.5953 H       1  LIG   0.0567   0.0000 
45    H23     -1.5367    2.8453   -3.6361 H       1  LIG   0.0513   0.0000 
46    H24     -1.0123    3.3005   -5.2481 H       1  LIG   0.0420   0.0000 
@<TRIPOS>BOND
1     1     2     1
2     1     23    1
3     1     24    1
4     1     25    1
5     2     8     1
6     2     12    1
7     2     3     1
8     3     4     1
9     3     26    1
10    3     27    1
11    4     5     1
12    4     28    1
13    4     29    1
14    5     6     2
15    5     7     1
16    7     8     2
17    7     30    1
18    8     9     1
19    9     10    2
20    9     31    1
21    10    11    1
22    10    32    1
23    11    16    1
24    11    12    1
25    11    33    1
26    12    13    1
27    12    34    1
28    13    14    1
29    13    35    1
30    13    36    1
31    14    15    1
32    14    37    1
33    14    38    1
34    15    21    1
35    15    16    1
36    15    22    1
37    16    17    1
38    16    39    1
39    17    18    1
40    17    40    1
41    17    41    1
42    18    19    1
43    18    42    1
44    18    43    1
45    19    20    2
46    19    21    1
47    22    44    1
48    22    45    1
49    22    46    1
@<TRIPOS>SUBSTRUCTURE
1   LIG    1    
 
########## Number      : 444
########## Name        : ZINC00001841
########## Description : AM1BCC_CHARGES =   1.0001 ORIGINAL_CHARGES =   1.0000

@<TRIPOS>MOLECULE
ZINC00001841
55    58    1     0     0    
SMALL
USER_CHARGES
****
****
@<TRIPOS>ATOM
1     C1       2.3102    7.3569    5.4422 C.3     1  LIG  -0.0851   0.0000 
2     C2       0.9170    7.7271    6.0122 C.3     1  LIG  -0.0346   0.0000 
3     C3      -0.0319    7.9920    4.8059 C.3     1  LIG  -0.0714   0.0000 
4     C4      -0.3345    6.7419    3.9728 C.3     1  LIG  -0.0771   0.0000 
5     C5      -0.8279    5.5752    4.8199 C.3     1  LIG  -0.0787   0.0000 
6     C6       0.0731    5.2993    6.0211 C.3     1  LIG  -0.0751   0.0000 
7     C7       0.2679    6.5717    6.8641 C.3     1  LIG  -0.0570   0.0000 
8     C8       1.0833    6.3010    8.1370 C.3     1  LIG  -0.0771   0.0000 
9     C9       1.2384    7.5565    9.0132 C.3     1  LIG  -0.0732   0.0000 
10    C10      1.8799    8.6908    8.2045 C.3     1  LIG  -0.0422   0.0000 
11    C11      0.9743    8.9721    6.9642 C.3     1  LIG  -0.0829   0.0000 
12    C12      1.4214   10.2859    6.2896 C.3     1  LIG   0.1527   0.2800 
13    C13      1.1411   11.4924    7.2362 C.3     1  LIG  -0.0848   0.0000 
14    C14      1.2670   11.1639    8.7584 C.3     1  LIG  -0.0520   0.0000 
15    C15      2.2500    9.9941    8.9440 C.3     1  LIG  -0.0561   0.0000 
16    C16      2.4915    9.9770   10.4539 C.3     1  LIG  -0.0891   0.0000 
17    C17      2.4244   11.4696   10.8633 C.3     1  LIG  -0.1028   0.0000 
18    C18      1.8881   12.2665    9.6385 C.3     1  LIG   0.1107   0.5030 
19    C19     -0.1580   10.8728    9.3211 C.3     1  LIG  -0.0991   0.0000 
20    O1       2.8130   10.2409    6.0097 O.3     1  LIG  -0.6333  -0.6800 
21    H1       3.5750   13.4920    9.6390 H       1  LIG   0.4529   0.4500 
22    H2       3.6929   12.2665    8.5367 H       1  LIG   0.4714   0.4500 
23    H3       3.0235   11.0054    5.4469 H       1  LIG   0.4266   0.4000 
24    H4       3.0625    7.1776    6.2120 H       1  LIG   0.0436   0.0000 
25    H5       2.2829    6.4463    4.8374 H       1  LIG   0.0551   0.0000 
26    H6       2.6900    8.1401    4.7789 H       1  LIG   0.0189   0.0000 
27    H7      -0.9821    8.4014    5.1739 H       1  LIG   0.0386   0.0000 
28    H8       0.3937    8.7471    4.1352 H       1  LIG   0.0312   0.0000 
29    H9      -1.0911    6.9864    3.2178 H       1  LIG   0.0493   0.0000 
30    H10      0.5597    6.4372    3.4172 H       1  LIG   0.0448   0.0000 
31    H11     -1.8419    5.7967    5.1760 H       1  LIG   0.0430   0.0000 
32    H12     -0.9033    4.6746    4.2000 H       1  LIG   0.0533   0.0000 
33    H13     -0.3945    4.5212    6.6373 H       1  LIG   0.0504   0.0000 
34    H14      1.0330    4.8879    5.6916 H       1  LIG   0.0488   0.0000 
35    H15     -0.7556    6.8588    7.1760 H       1  LIG   0.0464   0.0000 
36    H16      0.5832    5.5254    8.7303 H       1  LIG   0.0563   0.0000 
37    H17      2.0722    5.9005    7.8844 H       1  LIG   0.0504   0.0000 
38    H18      0.2610    7.8613    9.4041 H       1  LIG   0.0410   0.0000 
39    H19      1.8655    7.3013    9.8750 H       1  LIG   0.0463   0.0000 
40    H20      2.8587    8.2718    7.9149 H       1  LIG   0.0713   0.0000 
41    H21     -0.0556    9.1098    7.3290 H       1  LIG   0.0562   0.0000 
42    H22      0.8621   10.4749    5.3637 H       1  LIG   0.0607   0.0000 
43    H23      1.8024   12.3092    6.9360 H       1  LIG   0.0270   0.0000 
44    H24      0.1235   11.8536    7.0372 H       1  LIG   0.0752   0.0000 
45    H25      3.2474   10.2349    8.5273 H       1  LIG   0.0436   0.0000 
46    H26      1.7231    9.4125   10.9920 H       1  LIG   0.0805   0.0000 
47    H27      3.4621    9.5378   10.7065 H       1  LIG   0.0724   0.0000 
48    H28      1.7394   11.5777   11.7126 H       1  LIG   0.0934   0.0000 
49    H29      3.4051   11.8270   11.1968 H       1  LIG   0.0600   0.0000 
50    H30      1.1877   13.0487    9.9677 H       1  LIG   0.1079   0.0000 
51    H31     -0.6981   10.0690    8.8278 H       1  LIG   0.0769   0.0000 
52    H32     -0.1409   10.6234   10.3869 H       1  LIG   0.0524   0.0000 
53    H33     -0.7826   11.7700    9.2254 H       1  LIG   0.0472   0.0000 
54    N1       3.0350   12.9279    8.9687 N.4     1  LIG  -0.8393  -0.8530 
55    H34      2.7223   13.5806    8.2386 H       1  LIG   0.4546   0.4500 
@<TRIPOS>BOND
1     1     2     1
2     1     24    1
3     1     25    1
4     1     26    1
5     2     7     1
6     2     11    1
7     2     3     1
8     3     4     1
9     3     27    1
10    3     28    1
11    4     5     1
12    4     29    1
13    4     30    1
14    5     6     1
15    5     31    1
16    5     32    1
17    6     7     1
18    6     33    1
19    6     34    1
20    7     8     1
21    7     35    1
22    8     9     1
23    8     36    1
24    8     37    1
25    9     10    1
26    9     38    1
27    9     39    1
28    10    15    1
29    10    11    1
30    10    40    1
31    11    12    1
32    11    41    1
33    12    13    1
34    12    20    1
35    12    42    1
36    13    14    1
37    13    43    1
38    13    44    1
39    14    18    1
40    14    15    1
41    14    19    1
42    15    16    1
43    15    45    1
44    16    17    1
45    16    46    1
46    16    47    1
47    17    18    1
48    17    48    1
49    17    49    1
50    18    50    1
51    18    54    1
52    19    51    1
53    19    52    1
54    19    53    1
55    20    23    1
56    21    54    1
57    22    54    1
58    54    55    1
@<TRIPOS>SUBSTRUCTURE
1   LIG    1    
 
########## Number      : 445
########## Name        : ZINC00001842
########## Description : AM1BCC_CHARGES =   0.0003 ORIGINAL_CHARGES =   0.0000

@<TRIPOS>MOLECULE
ZINC00001842
52    55    1     0     0    
SMALL
USER_CHARGES
****
****
@<TRIPOS>ATOM
1     C1      -0.0858    5.3450    1.0800 C.3     1  LIG  -0.0852   0.0000 
2     C2      -0.9667    4.2507    0.4233 C.3     1  LIG  -0.0713   0.0000 
3     C3      -0.9047    2.9925    1.3090 C.3     1  LIG  -0.0783   0.0000 
4     C4      -1.6134    3.1995    2.6449 C.3     1  LIG  -0.1650   0.0610 
5     C5      -2.8015    4.1398    2.6672 C.2     1  LIG   0.7168   0.6590 
6     O1      -3.5565    4.1799    3.6365 O.2     1  LIG  -0.5887  -0.5700 
7     O2      -2.9279    5.0207    1.6434 O.3     1  LIG  -0.4110  -0.4300 
8     C6      -2.4503    4.6511    0.3464 C.3     1  LIG   0.1515   0.2800 
9     C7      -2.7276    5.7990   -0.6380 C.3     1  LIG  -0.0780   0.0000 
10    C8      -2.1550    5.5225   -2.0397 C.3     1  LIG  -0.0725   0.0000 
11    C9      -0.6615    5.1778   -1.9243 C.3     1  LIG  -0.0485   0.0000 
12    C10     -0.4999    3.9205   -1.0367 C.3     1  LIG  -0.0524   0.0000 
13    C11      0.9415    3.4033   -1.1694 C.3     1  LIG  -0.0681   0.0000 
14    C12      1.1910    2.8609   -2.5991 C.3     1  LIG  -0.0655   0.0000 
15    C13      0.3609    3.5673   -3.7150 C.3     1  LIG  -0.0272   0.0000 
16    C14      0.0786    5.0159   -3.2750 C.3     1  LIG  -0.0626   0.0000 
17    C15     -0.4567    5.6606   -4.5553 C.3     1  LIG  -0.0685   0.0000 
18    C16      0.3316    4.9559   -5.6940 C.3     1  LIG  -0.1072   0.0000 
19    C17      1.1387    3.7957   -5.0380 C.3     1  LIG   0.1483   0.2800 
20    C18      1.2919    2.5815   -5.9481 C.3     1  LIG  -0.1159   0.0000 
21    O3       2.4538    4.2788   -4.7424 O.3     1  LIG  -0.5986  -0.6800 
22    C19     -0.9328    2.7446   -3.9953 C.3     1  LIG  -0.0883   0.0000 
23    H1       2.8854    4.5103   -5.5825 H       1  LIG   0.3988   0.4000 
24    H2       0.9673    5.0458    1.0994 H       1  LIG   0.0419   0.0000 
25    H3      -0.1490    6.3114    0.5756 H       1  LIG   0.0470   0.0000 
26    H4      -0.3741    5.5379    2.1185 H       1  LIG   0.0403   0.0000 
27    H5      -1.3926    2.1569    0.7894 H       1  LIG   0.0491   0.0000 
28    H6       0.1270    2.6758    1.4993 H       1  LIG   0.0574   0.0000 
29    H7      -1.9478    2.2246    3.0182 H       1  LIG   0.0824   0.0000 
30    H8      -0.8929    3.5965    3.3704 H       1  LIG   0.0829   0.0000 
31    H9      -3.0357    3.7943   -0.0341 H       1  LIG   0.0454   0.0000 
32    H10     -3.8098    5.9639   -0.7095 H       1  LIG   0.0604   0.0000 
33    H11     -2.3190    6.7379   -0.2438 H       1  LIG   0.0595   0.0000 
34    H12     -2.7130    4.7073   -2.5123 H       1  LIG   0.0441   0.0000 
35    H13     -2.2999    6.4189   -2.6529 H       1  LIG   0.0496   0.0000 
36    H14     -0.2369    6.0701   -1.4330 H       1  LIG   0.0507   0.0000 
37    H15     -1.1095    3.0807   -1.3985 H       1  LIG   0.0502   0.0000 
38    H16      1.6562    4.2096   -0.9644 H       1  LIG   0.0467   0.0000 
39    H17      1.1568    2.6004   -0.4580 H       1  LIG   0.0382   0.0000 
40    H18      2.2680    2.9288   -2.7891 H       1  LIG   0.0695   0.0000 
41    H19      0.9726    1.7851   -2.6071 H       1  LIG   0.0352   0.0000 
42    H20      1.0219    5.5679   -3.0811 H       1  LIG   0.0643   0.0000 
43    H21     -1.5285    5.4839   -4.6929 H       1  LIG   0.0428   0.0000 
44    H22     -0.2926    6.7429   -4.5672 H       1  LIG   0.0457   0.0000 
45    H23     -0.3788    4.5853   -6.4418 H       1  LIG   0.0471   0.0000 
46    H24      0.9938    5.6750   -6.1891 H       1  LIG   0.0469   0.0000 
47    H25      1.9025    2.8305   -6.8237 H       1  LIG   0.0332   0.0000 
48    H26      1.8127    1.7713   -5.4259 H       1  LIG   0.0500   0.0000 
49    H27      0.3327    2.2021   -6.3117 H       1  LIG   0.0474   0.0000 
50    H28     -0.6875    1.6929   -4.1842 H       1  LIG   0.0355   0.0000 
51    H29     -1.6667    2.7544   -3.1932 H       1  LIG   0.0391   0.0000 
52    H30     -1.4654    3.1048   -4.8820 H       1  LIG   0.0352   0.0000 
@<TRIPOS>BOND
1     1     2     1
2     1     24    1
3     1     25    1
4     1     26    1
5     2     8     1
6     2     12    1
7     2     3     1
8     3     4     1
9     3     27    1
10    3     28    1
11    4     5     1
12    4     29    1
13    4     30    1
14    5     6     2
15    5     7     1
16    7     8     1
17    8     9     1
18    8     31    1
19    9     10    1
20    9     32    1
21    9     33    1
22    10    11    1
23    10    34    1
24    10    35    1
25    11    16    1
26    11    12    1
27    11    36    1
28    12    13    1
29    12    37    1
30    13    14    1
31    13    38    1
32    13    39    1
33    14    15    1
34    14    40    1
35    14    41    1
36    15    19    1
37    15    16    1
38    15    22    1
39    16    17    1
40    16    42    1
41    17    18    1
42    17    43    1
43    17    44    1
44    18    19    1
45    18    45    1
46    18    46    1
47    19    20    1
48    19    21    1
49    20    47    1
50    20    48    1
51    20    49    1
52    21    23    1
53    22    50    1
54    22    51    1
55    22    52    1
@<TRIPOS>SUBSTRUCTURE
1   LIG    1    
 
########## Number      : 446
########## Name        : ZINC00001843
########## Description : AM1BCC_CHARGES =  -0.0000 ORIGINAL_CHARGES =  -0.0000

@<TRIPOS>MOLECULE
ZINC00001843
56    59    1     0     0    
SMALL
USER_CHARGES
****
****
@<TRIPOS>ATOM
1     C1       0.3509   -1.3892   -5.9378 C.3     1  LIG  -0.1899   0.0610 
2     C2       1.8350   -1.5899   -5.8598 C.2     1  LIG   0.6259   0.6590 
3     O1       2.4770   -2.0119   -6.8184 O.2     1  LIG  -0.4941  -0.5700 
4     O2       2.4400   -1.3048   -4.6808 O.3     1  LIG  -0.4176  -0.4300 
5     C3       1.7550   -0.7557   -3.5292 C.3     1  LIG   0.1420   0.2800 
6     C4       1.7270    0.7958   -3.6626 C.3     1  LIG  -0.1067   0.0000 
7     C5       2.8973    1.3488   -2.8089 C.3     1  LIG  -0.0688   0.0000 
8     C6       3.6864    0.1002   -2.4171 C.3     1  LIG  -0.0665   0.0000 
9     C7       2.6116   -0.9776   -2.2800 C.3     1  LIG  -0.0451   0.0000 
10    C8       3.3256   -2.3411   -2.2070 C.3     1  LIG  -0.0641   0.0000 
11    C9       4.3404   -2.3946   -1.0470 C.3     1  LIG  -0.0750   0.0000 
12    C10      5.3398   -1.2004   -1.0724 C.3     1  LIG  -0.0506   0.0000 
13    C11      4.6035    0.1628   -1.1907 C.3     1  LIG  -0.0460   0.0000 
14    C12      5.6230    1.3089   -1.3251 C.3     1  LIG  -0.0742   0.0000 
15    C13      6.6162    1.3225   -0.1677 C.3     1  LIG  -0.0728   0.0000 
16    C14      7.3356   -0.0301   -0.0190 C.3     1  LIG  -0.0585   0.0000 
17    C15      6.3136   -1.1992    0.1691 C.3     1  LIG  -0.0338   0.0000 
18    C16      7.1368   -2.5276    0.1981 C.3     1  LIG  -0.0338   0.1382 
19    C17      8.3758   -2.4897    1.0630 C.2     1  LIG  -0.0179  -0.0732 
20    C18      8.9029   -1.3313    1.4939 C.2     1  LIG  -0.1081  -0.2882 
21    C19      8.3394    0.0131    1.1419 C.3     1  LIG  -0.0521   0.1382 
22    C20      8.9886   -3.7219    1.4423 C.1     1  LIG   0.1920   0.4921 
23    N1       9.4833   -4.7260    1.7483 N.1     1  LIG  -0.3731  -0.5571 
24    C21      5.5279   -1.0893    1.5059 C.3     1  LIG  -0.0877   0.0000 
25    C22      1.7172   -0.8176   -1.0215 C.3     1  LIG  -0.0896   0.0000 
26    H1       0.0213   -1.5841   -6.9637 H       1  LIG   0.0824   0.0000 
27    H2      -0.1619   -2.0972   -5.2829 H       1  LIG   0.0717   0.0000 
28    H3       0.0824   -0.3581   -5.7010 H       1  LIG   0.0671   0.0000 
29    H4       0.7389   -1.1638   -3.4576 H       1  LIG   0.0500   0.0000 
30    H5       1.8326    1.1190   -4.7034 H       1  LIG   0.0568   0.0000 
31    H6       0.7832    1.1962   -3.2758 H       1  LIG   0.0464   0.0000 
32    H7       3.5040    2.0582   -3.3810 H       1  LIG   0.0498   0.0000 
33    H8       2.5103    1.8746   -1.9290 H       1  LIG   0.0429   0.0000 
34    H9       4.3636   -0.0811   -3.2735 H       1  LIG   0.0682   0.0000 
35    H10      2.5955   -3.1517   -2.0942 H       1  LIG   0.0412   0.0000 
36    H11      3.8727   -2.5440   -3.1361 H       1  LIG   0.0689   0.0000 
37    H12      3.7928   -2.4348   -0.1024 H       1  LIG   0.0409   0.0000 
38    H13      4.8880   -3.3408   -1.1253 H       1  LIG   0.0436   0.0000 
39    H14      5.9242   -1.3658   -1.9993 H       1  LIG   0.0516   0.0000 
40    H15      4.0324    0.3891   -0.2799 H       1  LIG   0.0541   0.0000 
41    H16      6.1726    1.2134   -2.2703 H       1  LIG   0.0446   0.0000 
42    H17      5.1047    2.2743   -1.3568 H       1  LIG   0.0420   0.0000 
43    H18      7.3570    2.1119   -0.3465 H       1  LIG   0.0410   0.0000 
44    H19      6.0990    1.5933    0.7602 H       1  LIG   0.0425   0.0000 
45    H20      7.8936   -0.1672   -0.9657 H       1  LIG   0.0545   0.0000 
46    H21      6.4922   -3.3475    0.5410 H       1  LIG   0.0607   0.0000 
47    H22      7.4555   -2.7844   -0.8215 H       1  LIG   0.0613   0.0000 
48    H23      9.7814   -1.3320    2.1357 H       1  LIG   0.1347   0.1500 
49    H24      9.1699    0.6721    0.8586 H       1  LIG   0.0572   0.0000 
50    H25      7.8918    0.4550    2.0400 H       1  LIG   0.0612   0.0000 
51    H26      6.1919   -1.0778    2.3758 H       1  LIG   0.0387   0.0000 
52    H27      4.9185   -0.1851    1.5679 H       1  LIG   0.0381   0.0000 
53    H28      4.8627   -1.9450    1.6557 H       1  LIG   0.0378   0.0000 
54    H29      2.2707   -0.8755   -0.0814 H       1  LIG   0.0468   0.0000 
55    H30      1.1796    0.1361   -1.0140 H       1  LIG   0.0351   0.0000 
56    H31      0.9590   -1.6095   -0.9960 H       1  LIG   0.0343   0.0000 
@<TRIPOS>BOND
1     1     2     1
2     1     26    1
3     1     27    1
4     1     28    1
5     2     3     2
6     2     4     1
7     4     5     1
8     5     9     1
9     5     6     1
10    5     29    1
11    6     7     1
12    6     30    1
13    6     31    1
14    7     8     1
15    7     32    1
16    7     33    1
17    8     13    1
18    8     9     1
19    8     34    1
20    9     10    1
21    9     25    1
22    10    11    1
23    10    35    1
24    10    36    1
25    11    12    1
26    11    37    1
27    11    38    1
28    12    17    1
29    12    13    1
30    12    39    1
31    13    14    1
32    13    40    1
33    14    15    1
34    14    41    1
35    14    42    1
36    15    16    1
37    15    43    1
38    15    44    1
39    16    21    1
40    16    17    1
41    16    45    1
42    17    18    1
43    17    24    1
44    18    19    1
45    18    46    1
46    18    47    1
47    19    20    2
48    19    22    1
49    20    21    1
50    20    48    1
51    21    49    1
52    21    50    1
53    22    23    3
54    24    51    1
55    24    52    1
56    24    53    1
57    25    54    1
58    25    55    1
59    25    56    1
@<TRIPOS>SUBSTRUCTURE
1   LIG    1    
 
########## Number      : 447
########## Name        : ZINC00001844
########## Description : AM1BCC_CHARGES =   0.0001 ORIGINAL_CHARGES =   0.0000

@<TRIPOS>MOLECULE
ZINC00001844
40    43    1     0     0    
SMALL
USER_CHARGES
****
****
@<TRIPOS>ATOM
1     C1      -0.5358   -8.1901   -3.5044 C.3     1  LIG  -0.0912   0.0000 
2     C2      -1.5738   -7.3050   -2.7824 C.3     1  LIG  -0.1315   0.0610 
3     C3      -1.1385   -7.0934   -1.3313 C.3     1  LIG  -0.0562   0.0000 
4     C4       0.1362   -6.2139   -1.2538 C.3     1  LIG  -0.0751   0.0000 
5     C5       0.0453   -4.8839   -2.0738 C.3     1  LIG  -0.0088   0.1435 
6     C6       1.3732   -4.1384   -2.1554 C.ar    1  LIG  -0.1048  -0.1435 
7     C7       2.3206   -4.2029   -1.1173 C.ar    1  LIG  -0.0944  -0.1500 
8     C8       3.5077   -3.4696   -1.1707 C.ar    1  LIG  -0.1571  -0.1500 
9     C9       3.7571   -2.6451   -2.2577 C.ar    1  LIG   0.1272   0.0825 
10    C10      2.8308   -2.5385   -3.2896 C.ar    1  LIG  -0.2169  -0.1500 
11    C11      1.6299   -3.2690   -3.2424 C.ar    1  LIG  -0.0331  -0.1435 
12    C12      0.6774   -3.1231   -4.4081 C.3     1  LIG  -0.0373   0.1435 
13    C13     -0.6808   -3.7933   -4.2062 C.3     1  LIG  -0.0743   0.0000 
14    C14     -0.4841   -5.1458   -3.5109 C.3     1  LIG  -0.0432   0.0000 
15    C15     -1.7900   -5.9188   -3.3670 C.3     1  LIG  -0.1017   0.0000 
16    C16     -2.5738   -6.2245   -4.6070 C.3     1  LIG   0.1302   0.2800 
17    O1      -3.4556   -7.2917   -4.1302 O.3     1  LIG  -0.4208  -0.4300 
18    C17     -2.9304   -7.8984   -2.9920 C.2     1  LIG   0.7181   0.6590 
19    O2      -3.4727   -8.7774   -2.3467 O.2     1  LIG  -0.5583  -0.5700 
20    O3       4.9276   -1.9422   -2.2822 O.3     1  LIG  -0.4964  -0.5325 
21    H1       4.9556   -1.4146   -3.0986 H       1  LIG   0.4189   0.4500 
22    H2      -0.8151   -8.3817   -4.5463 H       1  LIG   0.0452   0.0000 
23    H3       0.4730   -7.7709   -3.5091 H       1  LIG   0.0535   0.0000 
24    H4      -0.4763   -9.1719   -3.0185 H       1  LIG   0.0557   0.0000 
25    H5      -1.9423   -6.6128   -0.7579 H       1  LIG   0.0531   0.0000 
26    H6      -0.9510   -8.0541   -0.8361 H       1  LIG   0.0615   0.0000 
27    H7       0.3083   -5.9865   -0.1946 H       1  LIG   0.0472   0.0000 
28    H8       1.0026   -6.7991   -1.5855 H       1  LIG   0.0507   0.0000 
29    H9      -0.6817   -4.2668   -1.5131 H       1  LIG   0.0578   0.0000 
30    H10      2.1523   -4.8193   -0.2391 H       1  LIG   0.1358   0.1500 
31    H11      4.2253   -3.5440   -0.3585 H       1  LIG   0.1515   0.1500 
32    H12      3.0319   -1.8879   -4.1374 H       1  LIG   0.1333   0.1500 
33    H13      0.5173   -2.0600   -4.6249 H       1  LIG   0.0548   0.0000 
34    H14      1.1599   -3.5685   -5.2879 H       1  LIG   0.0530   0.0000 
35    H15     -1.3268   -3.1472   -3.5977 H       1  LIG   0.0485   0.0000 
36    H16     -1.1705   -3.9079   -5.1796 H       1  LIG   0.0446   0.0000 
37    H17      0.2408   -5.6962   -4.1312 H       1  LIG   0.0663   0.0000 
38    H18     -2.4028   -5.3071   -2.6761 H       1  LIG   0.0662   0.0000 
39    H19     -3.1935   -5.3852   -4.9338 H       1  LIG   0.0722   0.0000 
40    H20     -1.9848   -6.6001   -5.4486 H       1  LIG   0.0559   0.0000 
@<TRIPOS>BOND
1     1     2     1
2     1     22    1
3     1     23    1
4     1     24    1
5     2     15    1
6     2     18    1
7     2     3     1
8     3     4     1
9     3     25    1
10    3     26    1
11    4     5     1
12    4     27    1
13    4     28    1
14    5     14    1
15    5     6     1
16    5     29    1
17    6     11    ar
18    6     7     ar
19    7     8     ar
20    7     30    1
21    8     9     ar
22    8     31    1
23    9     10    ar
24    9     20    1
25    10    11    ar
26    10    32    1
27    11    12    1
28    12    13    1
29    12    33    1
30    12    34    1
31    13    14    1
32    13    35    1
33    13    36    1
34    14    15    1
35    14    37    1
36    15    16    1
37    15    38    1
38    16    17    1
39    16    39    1
40    16    40    1
41    17    18    1
42    18    19    2
43    20    21    1
@<TRIPOS>SUBSTRUCTURE
1   LIG    1    
 
########## Number      : 448
########## Name        : ZINC00001852
########## Description : AM1BCC_CHARGES =  -0.0000 ORIGINAL_CHARGES =  -0.0000

@<TRIPOS>MOLECULE
ZINC00001852
19    20    1     0     0    
SMALL
USER_CHARGES
****
****
@<TRIPOS>ATOM
1     C1       1.8660   -7.0518   -2.3540 C.3     1  LIG  -0.0428   0.1382 
2     C2       2.5870   -6.8774   -1.0492 C.2     1  LIG  -0.1296  -0.1238 
3     C3       2.2871   -5.9751   -0.0961 C.2     1  LIG  -0.0610   0.0726 
4     S1       3.1981   -5.9204    1.3724 S.3     1  LIG  -0.0410  -0.1010 
5     S2       4.6327   -7.1911    0.6976 S.3     1  LIG  -0.0113  -0.1410 
6     C4       3.7648   -7.7485   -0.7324 C.2     1  LIG   0.2050   0.5066 
7     S3       4.2981   -9.0917   -1.5844 S.2     1  LIG  -0.2273  -0.3800 
8     C5       1.1695   -5.0334   -0.1782 C.ar    1  LIG   0.3377   0.3384 
9     C6       1.3659   -3.6830   -0.4208 C.ar    1  LIG   0.3095   0.1600 
10    N1       0.3413   -2.8083   -0.5108 N.ar    1  LIG  -0.6241  -0.6200 
11    C7      -0.8926   -3.3265   -0.3523 C.ar    1  LIG   0.2944   0.1600 
12    C8      -1.0970   -4.6684   -0.1148 C.ar    1  LIG   0.2809   0.1600 
13    N2      -0.0747   -5.5439   -0.0258 N.ar    1  LIG  -0.6004  -0.6200 
14    H1       1.0961   -6.2927   -2.5201 H       1  LIG   0.0505   0.0000 
15    H2       2.5654   -6.9755   -3.1933 H       1  LIG   0.0641   0.0000 
16    H3       1.3729   -8.0285   -2.3928 H       1  LIG   0.0671   0.0000 
17    H4       2.3532   -3.2548   -0.5551 H       1  LIG   0.0459   0.1500 
18    H5      -1.7161   -2.6265   -0.4232 H       1  LIG   0.0407   0.1500 
19    H6      -2.0900   -5.0821    0.0110 H       1  LIG   0.0417   0.1500 
@<TRIPOS>BOND
1     1     2     1
2     1     14    1
3     1     15    1
4     1     16    1
5     2     6     1
6     2     3     2
7     3     4     1
8     3     8     1
9     4     5     1
10    5     6     1
11    6     7     2
12    8     13    ar
13    8     9     ar
14    9     10    ar
15    9     17    1
16    10    11    ar
17    11    12    ar
18    11    18    1
19    12    13    ar
20    12    19    1
@<TRIPOS>SUBSTRUCTURE
1   LIG    1    
 
########## Number      : 449
########## Name        : ZINC00001856
########## Description : AM1BCC_CHARGES =  -0.0001 ORIGINAL_CHARGES =   0.0000

@<TRIPOS>MOLECULE
ZINC00001856
28    29    1     0     0    
SMALL
USER_CHARGES
****
****
@<TRIPOS>ATOM
1     C1       6.2091   -8.0523   -1.4194 C.ar    1  LIG  -0.1762  -0.1500 
2     C2       6.7179   -8.9200   -0.4549 C.ar    1  LIG  -0.0718  -0.1500 
3     C3       6.3574   -8.7634    0.8823 C.ar    1  LIG  -0.1711  -0.1500 
4     C4       5.4904   -7.7351    1.2551 C.ar    1  LIG   0.1977   0.0825 
5     C5       4.9893   -6.8434    0.2956 C.ar    1  LIG  -0.2396   0.0862 
6     C6       5.3451   -7.0191   -1.0494 C.ar    1  LIG  -0.0710  -0.1500 
7     C7       4.0657   -5.7436    0.6878 C.2     1  LIG   0.6906   0.5438 
8     O1       3.2605   -5.9684    1.5850 O.2     1  LIG  -0.6213  -0.5700 
9     N1       4.2534   -4.5525    0.0016 N.am    1  LIG  -0.4571  -0.5470 
10    C8       3.5051   -3.3584    0.1369 C.ar    1  LIG   0.0325   0.1170 
11    C9       2.3935   -3.2158    0.9738 C.ar    1  LIG  -0.1180  -0.1500 
12    C10      1.7116   -1.9966    1.0422 C.ar    1  LIG  -0.1323  -0.1500 
13    C11      2.1378   -0.9188    0.2736 C.ar    1  LIG   0.1005   0.0825 
14    C12      3.2387   -1.0415   -0.5669 C.ar    1  LIG  -0.1868  -0.1500 
15    C13      3.9181   -2.2599   -0.6339 C.ar    1  LIG  -0.1442  -0.1500 
16    O2       1.4471    0.2555    0.3667 O.3     1  LIG  -0.4957  -0.5325 
17    O3       5.1829   -7.6532    2.5866 O.3     1  LIG  -0.5002  -0.5325 
18    H1       5.0261   -4.5004   -0.6566 H       1  LIG   0.3205   0.3700 
19    H2       1.8616    0.9070   -0.2242 H       1  LIG   0.4173   0.4500 
20    H3       4.4880   -6.9826    2.7097 H       1  LIG   0.4581   0.4500 
21    H4       6.4813   -8.1832   -2.4632 H       1  LIG   0.1393   0.1500 
22    H5       7.3898   -9.7225   -0.7458 H       1  LIG   0.1395   0.1500 
23    H6       6.7514   -9.4474    1.6293 H       1  LIG   0.1575   0.1500 
24    H7       4.9473   -6.3750   -1.8293 H       1  LIG   0.1342   0.1500 
25    H8       2.0211   -4.0294    1.5855 H       1  LIG   0.1776   0.1500 
26    H9       0.8493   -1.8984    1.6961 H       1  LIG   0.1549   0.1500 
27    H10      3.5778   -0.2056   -1.1715 H       1  LIG   0.1347   0.1500 
28    H11      4.7774   -2.3401   -1.2962 H       1  LIG   0.1303   0.1500 
@<TRIPOS>BOND
1     1     6     ar
2     1     2     ar
3     1     21    1
4     2     3     ar
5     2     22    1
6     3     4     ar
7     3     23    1
8     4     5     ar
9     4     17    1
10    5     6     ar
11    5     7     1
12    6     24    1
13    7     8     2
14    7     9     am
15    9     10    1
16    9     18    1
17    10    15    ar
18    10    11    ar
19    11    12    ar
20    11    25    1
21    12    13    ar
22    12    26    1
23    13    14    ar
24    13    16    1
25    14    15    ar
26    14    27    1
27    15    28    1
28    16    19    1
29    17    20    1
@<TRIPOS>SUBSTRUCTURE
1   LIG    1    
 
########## Number      : 450
########## Name        : ZINC00001857
########## Description : AM1BCC_CHARGES =   0.9998 ORIGINAL_CHARGES =   1.0000

@<TRIPOS>MOLECULE
ZINC00001857
44    46    1     0     0    
SMALL
USER_CHARGES
****
****
@<TRIPOS>ATOM
1     C1       6.4324  -11.3642    0.8974 C.3     1  LIG   0.0831   0.5030 
2     C2       5.1753  -11.3105    3.0350 C.3     1  LIG   0.0818   0.5030 
3     C3       5.9555   -9.1602    1.9627 C.3     1  LIG   0.0759   0.5030 
4     C4       4.8289   -8.2589    2.4733 C.3     1  LIG   0.1953   0.3691 
5     N1       5.2789   -6.8689    2.5385 N.pl3   1  LIG  -0.6991  -0.8222 
6     C5       4.9627   -5.9721    1.4286 C.3     1  LIG   0.2559   0.5126 
7     C6       3.6387   -5.2751    1.6363 C.ar    1  LIG  -0.1525  -0.1435 
8     C7       2.4561   -5.8183    1.1143 C.ar    1  LIG  -0.1288  -0.1500 
9     C8       1.2312   -5.1811    1.3204 C.ar    1  LIG  -0.1295  -0.1500 
10    C9       1.1745   -3.9963    2.0513 C.ar    1  LIG  -0.1034  -0.1500 
11    C10      2.3424   -3.4473    2.5763 C.ar    1  LIG  -0.1233  -0.1500 
12    C11      3.5682   -4.0829    2.3710 C.ar    1  LIG  -0.0942  -0.1500 
13    C12      6.0193   -6.4140    3.5887 C.2     1  LIG   0.7106   0.5621 
14    N2       6.5437   -5.2158    3.7884 N.2     1  LIG  -0.5654  -0.5653 
15    C13      7.1837   -5.3143    4.9978 C.ar    1  LIG   0.0761   0.2272 
16    C14      7.9166   -4.3771    5.7386 C.ar    1  LIG  -0.0647  -0.1500 
17    C15      8.4604   -4.7876    6.9645 C.ar    1  LIG  -0.1284  -0.1500 
18    C16      8.2792   -6.0931    7.4379 C.ar    1  LIG  -0.1045  -0.1500 
19    C17      7.5499   -7.0388    6.7086 C.ar    1  LIG  -0.1140  -0.1500 
20    C18      7.0282   -6.5929    5.5009 C.ar    1  LIG   0.0220   0.1400 
21    O1       6.2867   -7.3039    4.6062 O.3     1  LIG  -0.3674  -0.2800 
22    H1       6.5423  -10.8428   -0.0571 H       1  LIG   0.1060   0.0000 
23    H2       7.3888  -11.4296    1.4232 H       1  LIG   0.1094   0.0000 
24    H3       6.0074  -12.3571    0.7281 H       1  LIG   0.1047   0.0000 
25    H4       4.3624  -10.7957    3.5507 H       1  LIG   0.1098   0.0000 
26    H5       4.8568  -12.3259    2.7835 H       1  LIG   0.1020   0.0000 
27    H6       6.0835  -11.3263    3.6432 H       1  LIG   0.1092   0.0000 
28    H7       6.8071   -9.2007    2.6508 H       1  LIG   0.1268   0.0000 
29    H8       6.3097   -8.7966    0.9910 H       1  LIG   0.1114   0.0000 
30    H9       3.9650   -8.3429    1.8032 H       1  LIG   0.0714   0.0000 
31    H10      4.4732   -8.5834    3.4577 H       1  LIG   0.0716   0.0000 
32    H11      5.7534   -5.2243    1.2805 H       1  LIG   0.1081   0.0000 
33    H12      4.9349   -6.5366    0.4870 H       1  LIG   0.0575   0.0000 
34    H13      2.4801   -6.7415    0.5410 H       1  LIG   0.1112   0.1500 
35    H14      0.3210   -5.6097    0.9106 H       1  LIG   0.1400   0.1500 
36    H15      0.2212   -3.5011    2.2115 H       1  LIG   0.1469   0.1500 
37    H16      2.2998   -2.5237    3.1466 H       1  LIG   0.1486   0.1500 
38    H17      4.4687   -3.6390    2.7879 H       1  LIG   0.1565   0.1500 
39    H18      8.0613   -3.3641    5.3785 H       1  LIG   0.1634   0.1500 
40    H19      9.0329   -4.0784    7.5578 H       1  LIG   0.1516   0.1500 
41    H20      8.7144   -6.3783    8.3930 H       1  LIG   0.1497   0.1500 
42    H21      7.4025   -8.0508    7.0640 H       1  LIG   0.1473   0.1500 
43    N3       5.4683  -10.5807    1.7509 N.4     1  LIG  -0.6754  -0.9590 
44    H22      4.5880  -10.5328    1.2202 H       1  LIG   0.4466   0.4500 
@<TRIPOS>BOND
1     1     22    1
2     1     23    1
3     1     24    1
4     1     43    1
5     2     25    1
6     2     26    1
7     2     27    1
8     2     43    1
9     3     4     1
10    3     28    1
11    3     29    1
12    3     43    1
13    4     5     1
14    4     30    1
15    4     31    1
16    5     6     1
17    5     13    1
18    6     7     1
19    6     32    1
20    6     33    1
21    7     12    ar
22    7     8     ar
23    8     9     ar
24    8     34    1
25    9     10    ar
26    9     35    1
27    10    11    ar
28    10    36    1
29    11    12    ar
30    11    37    1
31    12    38    1
32    13    21    1
33    13    14    2
34    14    15    1
35    15    20    ar
36    15    16    ar
37    16    17    ar
38    16    39    1
39    17    18    ar
40    17    40    1
41    18    19    ar
42    18    41    1
43    19    20    ar
44    19    42    1
45    20    21    1
46    43    44    1
@<TRIPOS>SUBSTRUCTURE
1   LIG    1    
 
########## Number      : 451
########## Name        : ZINC00001859
########## Description : AM1BCC_CHARGES =  -0.0000 ORIGINAL_CHARGES =   0.0000

@<TRIPOS>MOLECULE
ZINC00001859
36    37    1     0     0    
SMALL
USER_CHARGES
****
****
@<TRIPOS>ATOM
1     C1       7.9527   -9.0978   -0.2547 C.3     1  LIG  -0.1007   0.0000 
2     C2       8.6682   -7.8837    0.3027 C.3     1  LIG   0.1364   0.2800 
3     O1       7.6993   -7.0536    0.9581 O.3     1  LIG  -0.4338  -0.4300 
4     C3       8.1942   -5.9157    1.5034 C.2     1  LIG   0.6502   0.6338 
5     O2       9.3433   -5.5126    1.5148 O.2     1  LIG  -0.5285  -0.5700 
6     C4       7.0681   -5.2064    2.1317 C.ar    1  LIG  -0.1330   0.0862 
7     C5       6.8778   -5.3788    3.5141 C.ar    1  LIG   0.0079  -0.1435 
8     C6       5.8161   -4.7098    4.1296 C.ar    1  LIG  -0.1491  -0.1500 
9     C7       4.9582   -3.8917    3.3856 C.ar    1  LIG  -0.0736   0.0862 
10    C8       3.8281   -3.1785    4.0280 C.2     1  LIG   0.2988   0.3028 
11    N1       2.9949   -2.4356    3.3713 N.2     1  LIG  -0.4151  -0.5120 
12    N2       3.1718   -2.2930    2.0445 N.am    1  LIG  -0.2985  -0.3680 
13    C9       4.1708   -2.8651    1.2892 C.2     1  LIG   0.6903   0.5438 
14    O3       4.2333   -2.6688    0.0799 O.2     1  LIG  -0.6158  -0.5700 
15    C10      5.1477   -3.7281    2.0071 C.ar    1  LIG  -0.1582   0.0862 
16    C11      6.2254   -4.3769    1.3546 C.ar    1  LIG   0.0493  -0.1435 
17    C12      6.4796   -4.2024   -0.1225 C.3     1  LIG  -0.0737   0.1435 
18    C13      3.6119   -3.3272    5.5308 C.3     1  LIG   0.1167   0.3410 
19    O4       2.5769   -2.4941    6.0140 O.3     1  LIG  -0.5800  -0.6800 
20    C14      7.7804   -6.2525    4.3414 C.3     1  LIG  -0.0782   0.1435 
21    H1       2.4865   -1.6992    1.5883 H       1  LIG   0.3627   0.3700 
22    H2       1.7745   -2.7075    5.5071 H       1  LIG   0.4119   0.4000 
23    H3       8.6536   -9.7635   -0.7659 H       1  LIG   0.0490   0.0000 
24    H4       7.4565   -9.6545    0.5472 H       1  LIG   0.0490   0.0000 
25    H5       7.1729   -8.7948   -0.9613 H       1  LIG   0.0509   0.0000 
26    H6       9.4298   -8.1972    1.0252 H       1  LIG   0.0513   0.0000 
27    H7       9.1413   -7.3225   -0.5107 H       1  LIG   0.0527   0.0000 
28    H8       5.6717   -4.8457    5.1979 H       1  LIG   0.1473   0.1500 
29    H9       5.6492   -4.6204   -0.7004 H       1  LIG   0.0781   0.0000 
30    H10      6.6125   -3.1422   -0.3614 H       1  LIG   0.0793   0.0000 
31    H11      7.3880   -4.7013   -0.4700 H       1  LIG   0.0498   0.0000 
32    H12      3.3568   -4.3659    5.7624 H       1  LIG   0.0384   0.0000 
33    H13      4.5279   -3.0513    6.0609 H       1  LIG   0.0817   0.0000 
34    H14      7.7877   -7.2749    3.9501 H       1  LIG   0.0621   0.0000 
35    H15      8.7995   -5.8530    4.3422 H       1  LIG   0.0723   0.0000 
36    H16      7.4460   -6.3055    5.3831 H       1  LIG   0.0521   0.0000 
@<TRIPOS>BOND
1     1     2     1
2     1     23    1
3     1     24    1
4     1     25    1
5     2     3     1
6     2     26    1
7     2     27    1
8     3     4     1
9     4     5     2
10    4     6     1
11    6     16    ar
12    6     7     ar
13    7     8     ar
14    7     20    1
15    8     9     ar
16    8     28    1
17    9     15    ar
18    9     10    1
19    10    11    2
20    10    18    1
21    11    12    1
22    12    13    am
23    12    21    1
24    13    14    2
25    13    15    1
26    15    16    ar
27    16    17    1
28    17    29    1
29    17    30    1
30    17    31    1
31    18    19    1
32    18    32    1
33    18    33    1
34    19    22    1
35    20    34    1
36    20    35    1
37    20    36    1
@<TRIPOS>SUBSTRUCTURE
1   LIG    1    
 
########## Number      : 452
########## Name        : ZINC00001863
########## Description : AM1BCC_CHARGES =  -0.9999 ORIGINAL_CHARGES =  -1.0000

@<TRIPOS>MOLECULE
ZINC00001863
36    38    1     0     0    
SMALL
USER_CHARGES
****
****
@<TRIPOS>ATOM
1     C1       6.9453  -10.5990    0.9080 C.ar    1  LIG  -0.1370  -0.1500 
2     C2       7.1676   -9.3544    0.3222 C.ar    1  LIG  -0.1411  -0.1500 
3     C3       6.5514   -8.2151    0.8438 C.ar    1  LIG  -0.0961  -0.1500 
4     C4       5.7135   -8.3121    1.9628 C.ar    1  LIG  -0.0999   0.0540 
5     C5       5.4844   -9.5697    2.5368 C.ar    1  LIG  -0.1211  -0.1500 
6     C6       6.1026  -10.7071    2.0126 C.ar    1  LIG  -0.1411  -0.1500 
7     C7       5.0760   -7.1194    2.4814 C.2     1  LIG   0.3034   0.1732 
8     C8       4.9364   -6.7396    3.8053 C.2     1  LIG   0.1880   0.0870 
9     O1       4.2324   -5.5610    3.8122 O.3     1  LIG  -0.3817  -0.2800 
10    C9       4.0126   -5.2858    2.4929 C.2     1  LIG   0.5479   0.2981 
11    N1       4.5005   -6.1770    1.6573 N.2     1  LIG  -0.6944  -0.5653 
12    C10      3.2718   -4.0371    2.1912 C.3     1  LIG  -0.0988   0.1800 
13    C11      4.2115   -2.8401    2.1159 C.3     1  LIG  -0.2027  -0.1060 
14    C12      3.5267   -1.5071    1.8038 C.2     1  LIG   0.9138   0.9060 
15    O2       2.2748   -1.5364    1.6527 O.co2   1  LIG  -0.8501  -0.9000 
16    C13      5.3547   -7.2246    5.1113 C.ar    1  LIG  -0.1057   0.0530 
17    C14      6.6190   -7.8028    5.2928 C.ar    1  LIG  -0.1127  -0.1500 
18    C15      7.0157   -8.2670    6.5493 C.ar    1  LIG  -0.1381  -0.1500 
19    C16      6.1561   -8.1549    7.6395 C.ar    1  LIG  -0.1335  -0.1500 
20    C17      4.9002   -7.5758    7.4753 C.ar    1  LIG  -0.1370  -0.1500 
21    C18      4.5020   -7.1112    6.2196 C.ar    1  LIG  -0.1026  -0.1500 
22    H1       7.4243  -11.4848    0.5009 H       1  LIG   0.1208   0.1500 
23    H2       7.8201   -9.2698   -0.5422 H       1  LIG   0.1262   0.1500 
24    H3       6.7377   -7.2531    0.3712 H       1  LIG   0.1551   0.1500 
25    H4       4.8183   -9.6850    3.3886 H       1  LIG   0.1386   0.1500 
26    H5       5.9221  -11.6784    2.4643 H       1  LIG   0.1230   0.1500 
27    H6       2.7413   -4.1589    1.2391 H       1  LIG   0.0894   0.0000 
28    H7       2.5063   -3.8717    2.9590 H       1  LIG   0.0807   0.0000 
29    H8       4.7446   -2.7257    3.0688 H       1  LIG   0.0339   0.0000 
30    H9       4.9725   -3.0140    1.3440 H       1  LIG   0.0374   0.0000 
31    H10      7.3175   -7.8901    4.4638 H       1  LIG   0.1445   0.1500 
32    H11      7.9982   -8.7127    6.6763 H       1  LIG   0.1260   0.1500 
33    H12      6.4658   -8.5154    8.6161 H       1  LIG   0.1228   0.1500 
34    H13      4.2287   -7.4851    8.3244 H       1  LIG   0.1279   0.1500 
35    H14      3.5146   -6.6662    6.1165 H       1  LIG   0.1506   0.1500 
36    O3       4.3193   -0.5236    1.7360 O.co2   1  LIG  -0.8363  -0.9000 
@<TRIPOS>BOND
1     1     6     ar
2     1     2     ar
3     1     22    1
4     2     3     ar
5     2     23    1
6     3     4     ar
7     3     24    1
8     4     5     ar
9     4     7     1
10    5     6     ar
11    5     25    1
12    6     26    1
13    7     11    1
14    7     8     2
15    8     9     1
16    8     16    1
17    9     10    1
18    10    11    2
19    10    12    1
20    12    13    1
21    12    27    1
22    12    28    1
23    13    14    1
24    13    29    1
25    13    30    1
26    14    15    2
27    14    36    1
28    16    21    ar
29    16    17    ar
30    17    18    ar
31    17    31    1
32    18    19    ar
33    18    32    1
34    19    20    ar
35    19    33    1
36    20    21    ar
37    20    34    1
38    21    35    1
@<TRIPOS>SUBSTRUCTURE
1   LIG    1    
 
########## Number      : 453
########## Name        : ZINC00001866
########## Description : AM1BCC_CHARGES =   0.0000 ORIGINAL_CHARGES =  -0.0000

@<TRIPOS>MOLECULE
ZINC00001866
30    30    1     0     0    
SMALL
USER_CHARGES
****
****
@<TRIPOS>ATOM
1     C1       4.2540   -6.3018   -0.2675 C.ar    1  LIG  -0.1943  -0.1500 
2     C2       3.4680   -5.2589   -0.7623 C.ar    1  LIG  -0.2345  -0.1500 
3     C3       2.1508   -5.0990   -0.3447 C.ar    1  LIG   0.5523   0.4100 
4     N1       1.6746   -5.9904    0.5537 N.ar    1  LIG  -0.3389  -0.3100 
5     N2       2.4502   -7.0275    1.0528 N.ar    1  LIG  -0.3265  -0.3100 
6     C4       3.7190   -7.2007    0.6397 C.ar    1  LIG   0.4670   0.4100 
7     N3       4.5454   -8.2144    1.1630 N.pl3   1  LIG  -0.5760  -0.5110 
8     N4       4.0303   -9.1151    2.0838 N.3     1  LIG  -0.6672  -0.7090 
9     N5       1.3290   -4.0777   -0.8148 N.pl3   1  LIG  -0.7392  -0.8382 
10    C5      -0.0435   -3.9932   -0.3076 C.3     1  LIG   0.1667   0.3691 
11    C6      -0.1066   -3.3181    1.0595 C.3     1  LIG   0.0990   0.2800 
12    O1      -1.4532   -3.2773    1.5166 O.3     1  LIG  -0.5937  -0.6800 
13    C7       1.7786   -3.0662   -1.7713 C.3     1  LIG   0.1585   0.3691 
14    C8       2.5550   -1.9422   -1.0920 C.3     1  LIG   0.0916   0.2800 
15    O2       3.0344   -1.0262   -2.0692 O.3     1  LIG  -0.5888  -0.6800 
16    H1       5.2921   -8.5421    0.5580 H       1  LIG   0.3988   0.4000 
17    H2       4.8019   -9.5330    2.6033 H       1  LIG   0.3610   0.3600 
18    H3       3.4733   -8.6093    2.7738 H       1  LIG   0.3724   0.3600 
19    H4      -1.7490   -4.1964    1.6344 H       1  LIG   0.4041   0.4000 
20    H5       2.2608   -0.6353   -2.5104 H       1  LIG   0.3999   0.4000 
21    H6       5.2832   -6.3949   -0.6035 H       1  LIG   0.1540   0.1500 
22    H7       3.9298   -4.5838   -1.4760 H       1  LIG   0.1564   0.1500 
23    H8      -0.6760   -3.4287   -1.0050 H       1  LIG   0.0609   0.0000 
24    H9      -0.5130   -4.9851   -0.2679 H       1  LIG   0.0746   0.0000 
25    H10      0.4950   -3.8426    1.8082 H       1  LIG   0.0473   0.0000 
26    H11      0.2572   -2.2883    1.0038 H       1  LIG   0.0595   0.0000 
27    H12      2.3672   -3.5129   -2.5822 H       1  LIG   0.0672   0.0000 
28    H13      0.9171   -2.6261   -2.2905 H       1  LIG   0.0579   0.0000 
29    H14      1.9276   -1.3924   -0.3840 H       1  LIG   0.0341   0.0000 
30    H15      3.4195   -2.3233   -0.5410 H       1  LIG   0.0759   0.0000 
@<TRIPOS>BOND
1     1     6     ar
2     1     2     ar
3     1     21    1
4     2     3     ar
5     2     22    1
6     3     4     ar
7     3     9     1
8     4     5     ar
9     5     6     ar
10    6     7     1
11    7     8     1
12    7     16    1
13    8     17    1
14    8     18    1
15    9     10    1
16    9     13    1
17    10    11    1
18    10    23    1
19    10    24    1
20    11    12    1
21    11    25    1
22    11    26    1
23    12    19    1
24    13    14    1
25    13    27    1
26    13    28    1
27    14    15    1
28    14    29    1
29    14    30    1
30    15    20    1
@<TRIPOS>SUBSTRUCTURE
1   LIG    1    
 
########## Number      : 454
########## Name        : ZINC00001872
########## Description : AM1BCC_CHARGES =  -0.9999 ORIGINAL_CHARGES =  -1.0000

@<TRIPOS>MOLECULE
ZINC00001872
14    14    1     0     0    
SMALL
USER_CHARGES
****
****
@<TRIPOS>ATOM
1     C1       5.6014  -10.1108   -2.5154 C.ar    1  LIG  -0.1330  -0.1500 
2     C2       4.2432  -10.0236   -2.2245 C.ar    1  LIG  -0.1360  -0.1500 
3     C3       3.7709   -9.0926   -1.2931 C.ar    1  LIG  -0.0991  -0.1790 
4     C4       4.7043   -8.2566   -0.6671 C.ar    1  LIG  -0.1785  -0.0605 
5     N1       6.0629   -8.3310   -0.9465 N.ar    1  LIG   0.5095   0.5710 
6     C5       6.4967   -9.2634   -1.8732 C.ar    1  LIG  -0.2470  -0.0605 
7     O1       6.8909   -7.5605   -0.3647 O.3     1  LIG  -0.6452  -0.7500 
8     C6       2.3042   -8.9859   -0.9672 C.2     1  LIG   0.9150   0.9790 
9     O2       1.5144   -9.7756   -1.5726 O.co2   1  LIG  -0.8166  -0.9000 
10    H1       5.9601  -10.8359   -3.2394 H       1  LIG   0.1235   0.1500 
11    H2       3.5562  -10.6941   -2.7359 H       1  LIG   0.1639   0.1500 
12    H3       4.4543   -7.5026    0.0666 H       1  LIG   0.2007   0.1500 
13    H4       7.5633   -9.2670   -2.0419 H       1  LIG   0.1554   0.1500 
14    O3       1.9637   -8.1127   -0.1095 O.co2   1  LIG  -0.8125  -0.9000 
@<TRIPOS>BOND
1     1     6     ar
2     1     2     ar
3     1     10    1
4     2     3     ar
5     2     11    1
6     3     4     ar
7     3     8     1
8     4     5     ar
9     4     12    1
10    5     6     ar
11    5     7     1
12    6     13    1
13    8     9     2
14    8     14    1
@<TRIPOS>SUBSTRUCTURE
1   LIG    1    
 
########## Number      : 455
########## Name        : ZINC00001873
########## Description : AM1BCC_CHARGES =   1.0000 ORIGINAL_CHARGES =   1.0000

@<TRIPOS>MOLECULE
ZINC00001873
49    52    1     0     0    
SMALL
USER_CHARGES
****
****
@<TRIPOS>ATOM
1     C1      -2.5528    3.1093   -4.8742 C.ar    1  LIG  -0.1342  -0.1500 
2     C2      -3.7624    3.7286   -4.5726 C.ar    1  LIG  -0.0880  -0.1500 
3     C3      -4.0322    4.1283   -3.2630 C.ar    1  LIG  -0.1304  -0.1500 
4     C4      -3.0976    3.9122   -2.2434 C.ar    1  LIG   0.0827   0.0825 
5     C5      -1.8852    3.2918   -2.5531 C.ar    1  LIG  -0.2057  -0.1500 
6     C6      -1.6161    2.8920   -3.8658 C.ar    1  LIG  -0.0916  -0.1500 
7     O1      -3.4889    4.3559   -1.0094 O.3     1  LIG  -0.3075  -0.3625 
8     C7      -2.6208    4.1435    0.1062 C.3     1  LIG   0.1181   0.2800 
9     C8      -1.6068    5.2795    0.2110 C.3     1  LIG   0.0560   0.5030 
10    C9      -0.1679    6.5230    1.8272 C.3     1  LIG   0.1163   0.5030 
11    C10      0.5011    6.4493    3.1927 C.3     1  LIG  -0.1340   0.0000 
12    C11      1.5128    5.3010    3.2567 C.3     1  LIG   0.1387   0.3001 
13    C12      0.8860    3.9672    2.8389 C.3     1  LIG  -0.1353   0.0000 
14    C13      0.2117    4.0721    1.4775 C.3     1  LIG   0.1147   0.5030 
15    N1       2.2157    5.2287    4.5279 N.am    1  LIG  -0.3865  -0.4771 
16    C14      1.6665    4.9625    5.7993 C.ar    1  LIG  -0.0090   0.1170 
17    C15      0.3731    4.7042    6.2057 C.ar    1  LIG  -0.1407  -0.1500 
18    C16      0.1536    4.4758    7.5700 C.ar    1  LIG  -0.1206  -0.1500 
19    C17      1.2158    4.5085    8.4946 C.ar    1  LIG  -0.1103  -0.1500 
20    C18      2.5205    4.7704    8.0745 C.ar    1  LIG  -0.1147  -0.1500 
21    C19      2.7090    4.9917    6.7270 C.ar    1  LIG   0.0168   0.1170 
22    N2       3.8972    5.2710    6.0580 N.am    1  LIG  -0.4450  -0.5470 
23    C20      3.6230    5.4252    4.6778 C.2     1  LIG   0.8061   0.6900 
24    O2       4.4413    5.6763    3.8044 O.2     1  LIG  -0.6226  -0.5700 
25    H1       4.8074    5.3501    6.4922 H       1  LIG   0.3737   0.3700 
26    H2      -2.3395    2.7969   -5.8923 H       1  LIG   0.1527   0.1500 
27    H3      -4.4958    3.9007   -5.3552 H       1  LIG   0.1541   0.1500 
28    H4      -4.9810    4.6112   -3.0407 H       1  LIG   0.1605   0.1500 
29    H5      -1.1227    3.1042   -1.8049 H       1  LIG   0.1126   0.1500 
30    H6      -0.6712    2.4097   -4.1010 H       1  LIG   0.1444   0.1500 
31    H7      -2.1726    3.1454    0.0851 H       1  LIG   0.0697   0.0000 
32    H8      -3.2637    4.1597    0.9945 H       1  LIG   0.0831   0.0000 
33    H9      -2.1396    6.2377    0.2179 H       1  LIG   0.1194   0.0000 
34    H10     -0.8985    5.2988   -0.6238 H       1  LIG   0.1128   0.0000 
35    H11      0.5482    6.7512    1.0298 H       1  LIG   0.1077   0.0000 
36    H12     -0.9602    7.2788    1.8352 H       1  LIG   0.1055   0.0000 
37    H13      1.0048    7.4009    3.4019 H       1  LIG   0.1150   0.0000 
38    H14     -0.2715    6.3361    3.9604 H       1  LIG   0.0773   0.0000 
39    H15      2.2816    5.5274    2.5044 H       1  LIG   0.1032   0.0000 
40    H16      1.6584    3.1893    2.8020 H       1  LIG   0.1134   0.0000 
41    H17      0.1479    3.6317    3.5750 H       1  LIG   0.0779   0.0000 
42    H18     -0.3092    3.1391    1.2478 H       1  LIG   0.1012   0.0000 
43    H19      0.9303    4.2943    0.6809 H       1  LIG   0.1062   0.0000 
44    H20     -0.4617    4.6730    5.5177 H       1  LIG   0.1181   0.1500 
45    H21     -0.8537    4.2693    7.9240 H       1  LIG   0.1457   0.1500 
46    H22      1.0142    4.3272    9.5473 H       1  LIG   0.1531   0.1500 
47    H23      3.3414    4.7968    8.7811 H       1  LIG   0.1583   0.1500 
48    N3      -0.8106    5.1895    1.4993 N.4     1  LIG  -0.6829  -0.9590 
49    H24     -1.4808    4.9890    2.2548 H       1  LIG   0.4440   0.4500 
@<TRIPOS>BOND
1     1     6     ar
2     1     2     ar
3     1     26    1
4     2     3     ar
5     2     27    1
6     3     4     ar
7     3     28    1
8     4     5     ar
9     4     7     1
10    5     6     ar
11    5     29    1
12    6     30    1
13    7     8     1
14    8     9     1
15    8     31    1
16    8     32    1
17    9     33    1
18    9     34    1
19    9     48    1
20    10    11    1
21    10    35    1
22    10    36    1
23    10    48    1
24    11    12    1
25    11    37    1
26    11    38    1
27    12    13    1
28    12    15    1
29    12    39    1
30    13    14    1
31    13    40    1
32    13    41    1
33    14    42    1
34    14    43    1
35    14    48    1
36    15    23    am
37    15    16    1
38    16    21    ar
39    16    17    ar
40    17    18    ar
41    17    44    1
42    18    19    ar
43    18    45    1
44    19    20    ar
45    19    46    1
46    20    21    ar
47    20    47    1
48    21    22    1
49    22    23    am
50    22    25    1
51    23    24    2
52    48    49    1
@<TRIPOS>SUBSTRUCTURE
1   LIG    1    
 
########## Number      : 456
########## Name        : ZINC00001874
########## Description : AM1BCC_CHARGES =   1.0003 ORIGINAL_CHARGES =   1.0000

@<TRIPOS>MOLECULE
ZINC00001874
38    39    1     0     0    
SMALL
USER_CHARGES
****
****
@<TRIPOS>ATOM
1     C1       1.8281   -9.5368    0.9897 C.3     1  LIG  -0.1370   0.0000 
2     C2       2.9443   -9.4441   -0.0357 C.3     1  LIG   0.1121   0.5030 
3     C3       5.3132   -8.6984   -0.3511 C.3     1  LIG   0.1128   0.5030 
4     C4       6.4931   -8.0713    0.3705 C.3     1  LIG  -0.1378   0.0000 
5     C5       3.5764   -7.0379    0.4622 C.3     1  LIG   0.1001   0.5030 
6     C6       3.5975   -6.5141    1.8942 C.3     1  LIG  -0.1227   0.1800 
7     C7       3.1679   -5.0991    1.9388 C.2     1  LIG   0.4479   0.2981 
8     N1       3.8799   -4.0077    1.7965 N.2     1  LIG  -0.6510  -0.5653 
9     C8       2.9332   -3.0129    1.9239 C.2     1  LIG   0.6190   0.4620 
10    N2       1.6880   -3.4748    2.1324 N.2     1  LIG  -0.3449  -0.4097 
11    O1       1.8431   -4.8591    2.1423 O.3     1  LIG  -0.1308  -0.0191 
12    C9       3.2743   -1.5990    1.8346 C.ar    1  LIG  -0.1624   0.0540 
13    C10      2.2900   -0.6076    1.9640 C.ar    1  LIG  -0.0829  -0.1500 
14    C11      2.6284    0.7454    1.8764 C.ar    1  LIG  -0.1344  -0.1500 
15    C12      3.9511    1.1232    1.6589 C.ar    1  LIG  -0.0904  -0.1500 
16    C13      4.9378    0.1489    1.5288 C.ar    1  LIG  -0.1382  -0.1500 
17    C14      4.6028   -1.2048    1.6159 C.ar    1  LIG  -0.0839  -0.1500 
18    H1       1.0912  -10.2810    0.6711 H       1  LIG   0.1041   0.0000 
19    H2       2.2140   -9.8429    1.9675 H       1  LIG   0.0669   0.0000 
20    H3       1.3025   -8.5853    1.1116 H       1  LIG   0.0700   0.0000 
21    H4       3.4025  -10.4312   -0.1573 H       1  LIG   0.1021   0.0000 
22    H5       2.5895   -9.0884   -1.0086 H       1  LIG   0.1060   0.0000 
23    H6       5.4771   -9.7778   -0.4357 H       1  LIG   0.1020   0.0000 
24    H7       5.1622   -8.2769   -1.3503 H       1  LIG   0.1061   0.0000 
25    H8       7.4193   -8.2915   -0.1699 H       1  LIG   0.1034   0.0000 
26    H9       6.4025   -6.9833    0.4373 H       1  LIG   0.0720   0.0000 
27    H10      6.5931   -8.4699    1.3853 H       1  LIG   0.0669   0.0000 
28    H11      4.2391   -6.4571   -0.1894 H       1  LIG   0.1200   0.0000 
29    H12      2.5722   -6.9812    0.0270 H       1  LIG   0.1157   0.0000 
30    H13      2.9432   -7.1189    2.5326 H       1  LIG   0.0986   0.0000 
31    H14      4.6081   -6.5923    2.3115 H       1  LIG   0.0977   0.0000 
32    H15      1.2478   -0.8682    2.1345 H       1  LIG   0.1533   0.1500 
33    H16      1.8573    1.5040    1.9783 H       1  LIG   0.1491   0.1500 
34    H17      4.2126    2.1752    1.5911 H       1  LIG   0.1472   0.1500 
35    H18      5.9702    0.4416    1.3593 H       1  LIG   0.1451   0.1500 
36    H19      5.3960   -1.9415    1.5104 H       1  LIG   0.1457   0.1500 
37    N3       4.0319   -8.4953    0.4417 N.4     1  LIG  -0.6915  -0.9590 
38    H20      4.2511   -8.7831    1.4053 H       1  LIG   0.4444   0.4500 
@<TRIPOS>BOND
1     1     2     1
2     1     18    1
3     1     19    1
4     1     20    1
5     2     21    1
6     2     22    1
7     2     37    1
8     3     4     1
9     3     23    1
10    3     24    1
11    3     37    1
12    4     25    1
13    4     26    1
14    4     27    1
15    5     6     1
16    5     28    1
17    5     29    1
18    5     37    1
19    6     7     1
20    6     30    1
21    6     31    1
22    7     11    1
23    7     8     2
24    8     9     1
25    9     10    2
26    9     12    1
27    10    11    1
28    12    17    ar
29    12    13    ar
30    13    14    ar
31    13    32    1
32    14    15    ar
33    14    33    1
34    15    16    ar
35    15    34    1
36    16    17    ar
37    16    35    1
38    17    36    1
39    37    38    1
@<TRIPOS>SUBSTRUCTURE
1   LIG    1    
 
########## Number      : 457
########## Name        : ZINC00001875
########## Description : AM1BCC_CHARGES =  -0.9998 ORIGINAL_CHARGES =  -1.0000

@<TRIPOS>MOLECULE
ZINC00001875
29    31    1     0     0    
SMALL
USER_CHARGES
****
****
@<TRIPOS>ATOM
1     C1       5.0384   -8.8099   -0.3554 C.3     1  LIG  -0.1078   0.0000 
2     C2       4.6326   -7.3444   -0.2724 C.3     1  LIG   0.2247   0.3691 
3     N1       4.9746   -6.6515    0.9871 N.pl3   1  LIG  -0.5301  -0.5691 
4     C3       5.5369   -7.2608    2.0970 C.2     1  LIG   0.0606  -0.0500 
5     C4       5.8820   -6.6767    3.2507 C.2     1  LIG  -0.2657  -0.2356 
6     C5       5.6491   -5.2190    3.3794 C.2     1  LIG   0.5992   0.4694 
7     O1       5.9917   -4.5947    4.3763 O.2     1  LIG  -0.5558  -0.5700 
8     C6       4.9962   -4.5298    2.2376 C.ar    1  LIG  -0.2263   0.0862 
9     C7       4.6703   -5.2604    1.0572 C.ar    1  LIG   0.2066   0.1000 
10    C8       4.0503   -4.5535    0.0056 C.ar    1  LIG  -0.2047  -0.1500 
11    C9       3.7916   -3.2033    0.1583 C.ar    1  LIG   0.0984   0.0825 
12    C10      4.1185   -2.5249    1.3042 C.ar    1  LIG  -0.0273   0.0825 
13    C11      4.7226   -3.1574    2.3655 C.ar    1  LIG  -0.0208  -0.1500 
14    O2       3.7776   -1.2095    1.2453 O.3     1  LIG  -0.3392  -0.3625 
15    C12      3.1966   -1.1360   -0.0723 C.3     1  LIG   0.3240   0.5600 
16    O3       3.2017   -2.3989   -0.7686 O.3     1  LIG  -0.3495  -0.3625 
17    C13      6.4735   -7.5210    4.3845 C.2     1  LIG   0.9300   1.0500 
18    O4       6.0536   -7.2442    5.5444 O.co2   1  LIG  -0.7918  -0.9000 
19    H1       4.7736   -9.2143   -1.3381 H       1  LIG   0.0311   0.0000 
20    H2       6.1184   -8.9348   -0.2256 H       1  LIG   0.0599   0.0000 
21    H3       4.5200   -9.4128    0.3972 H       1  LIG   0.0535   0.0000 
22    H4       5.1243   -6.8335   -1.1101 H       1  LIG   0.0345   0.0000 
23    H5       3.5478   -7.2935   -0.4299 H       1  LIG   0.0318   0.0000 
24    H6       5.6912   -8.3273    1.9851 H       1  LIG   0.1759   0.1500 
25    H7       3.7624   -5.0283   -0.9257 H       1  LIG   0.1451   0.1500 
26    H8       4.9718   -2.6026    3.2638 H       1  LIG   0.1765   0.1500 
27    H9       2.1607   -0.7899    0.0194 H       1  LIG   0.0564   0.0000 
28    H10      3.7605   -0.4063   -0.6646 H       1  LIG   0.0558   0.0000 
29    O5       7.3055   -8.4067    4.0309 O.co2   1  LIG  -0.8448  -0.9000 
@<TRIPOS>BOND
1     1     2     1
2     1     19    1
3     1     20    1
4     1     21    1
5     2     3     1
6     2     22    1
7     2     23    1
8     3     9     1
9     3     4     1
10    4     5     2
11    4     24    1
12    5     6     1
13    5     17    1
14    6     7     2
15    6     8     1
16    8     13    ar
17    8     9     ar
18    9     10    ar
19    10    11    ar
20    10    25    1
21    11    16    1
22    11    12    ar
23    12    13    ar
24    12    14    1
25    13    26    1
26    14    15    1
27    15    16    1
28    15    27    1
29    15    28    1
30    17    18    2
31    17    29    1
@<TRIPOS>SUBSTRUCTURE
1   LIG    1    
 
########## Number      : 458
########## Name        : ZINC00001877
########## Description : AM1BCC_CHARGES =  -1.0001 ORIGINAL_CHARGES =  -1.0000

@<TRIPOS>MOLECULE
ZINC00001877
30    32    1     0     0    
SMALL
USER_CHARGES
****
****
@<TRIPOS>ATOM
1     C1       7.5209   -8.1631   -0.6196 C.ar    1  LIG  -0.1376  -0.1500 
2     C2       7.1569   -6.9353   -1.1667 C.ar    1  LIG  -0.1456  -0.1500 
3     C3       6.6696   -5.9183   -0.3422 C.ar    1  LIG  -0.0978  -0.1500 
4     C4       6.5442   -6.1102    1.0440 C.ar    1  LIG  -0.1336   0.0000 
5     C5       6.9079   -7.3594    1.5757 C.ar    1  LIG  -0.1172  -0.1500 
6     C6       7.3950   -8.3761    0.7508 C.ar    1  LIG  -0.1412  -0.1500 
7     C7       6.0227   -5.0383    1.9030 C.ar    1  LIG   0.4031   0.3100 
8     C8       6.7074   -4.5018    2.9894 C.ar    1  LIG  -0.0091   0.0825 
9     C9       6.0869   -3.5130    3.7594 C.ar    1  LIG  -0.0678  -0.1790 
10    C10      4.7898   -3.0665    3.4144 C.ar    1  LIG  -0.1111   0.0000 
11    C11      4.0849   -2.0731    4.1333 C.ar    1  LIG  -0.0665  -0.1500 
12    C12      2.8097   -1.6697    3.7440 C.ar    1  LIG  -0.1680  -0.1500 
13    C13      2.2193   -2.2516    2.6326 C.ar    1  LIG  -0.1385  -0.1500 
14    C14      2.9065   -3.2337    1.9182 C.ar    1  LIG  -0.1830  -0.1500 
15    C15      4.1805   -3.6543    2.2872 C.ar    1  LIG   0.3687   0.3100 
16    N1       4.7822   -4.6088    1.5566 N.ar    1  LIG  -0.6737  -0.6200 
17    C16      6.8106   -2.9346    4.9336 C.2     1  LIG   0.9232   0.9790 
18    O1       7.4328   -1.8472    4.7329 O.co2   1  LIG  -0.8143  -0.9000 
19    O2       7.9765   -4.8831    3.3284 O.3     1  LIG  -0.4730  -0.5325 
20    H1       8.3563   -5.4277    2.6201 H       1  LIG   0.3986   0.4500 
21    H2       7.8988   -8.9540   -1.2608 H       1  LIG   0.1182   0.1500 
22    H3       7.2505   -6.7677   -2.2359 H       1  LIG   0.1214   0.1500 
23    H4       6.3907   -4.9672   -0.7918 H       1  LIG   0.1449   0.1500 
24    H5       6.8082   -7.5539    2.6419 H       1  LIG   0.1539   0.1500 
25    H6       7.6724   -9.3351    1.1793 H       1  LIG   0.1242   0.1500 
26    H7       4.5260   -1.6009    5.0086 H       1  LIG   0.1722   0.1500 
27    H8       2.2837   -0.9051    4.3076 H       1  LIG   0.1178   0.1500 
28    H9       1.2257   -1.9459    2.3185 H       1  LIG   0.1106   0.1500 
29    H10      2.4249   -3.6794    1.0497 H       1  LIG   0.1272   0.1500 
30    O3       6.7244   -3.5791    6.0229 O.co2   1  LIG  -0.8061  -0.9000 
@<TRIPOS>BOND
1     1     6     ar
2     1     2     ar
3     1     21    1
4     2     3     ar
5     2     22    1
6     3     4     ar
7     3     23    1
8     4     5     ar
9     4     7     1
10    5     6     ar
11    5     24    1
12    6     25    1
13    7     16    ar
14    7     8     ar
15    8     9     ar
16    8     19    1
17    9     10    ar
18    9     17    1
19    10    15    ar
20    10    11    ar
21    11    12    ar
22    11    26    1
23    12    13    ar
24    12    27    1
25    13    14    ar
26    13    28    1
27    14    15    ar
28    14    29    1
29    15    16    ar
30    17    18    2
31    17    30    1
32    19    20    1
@<TRIPOS>SUBSTRUCTURE
1   LIG    1    
 
########## Number      : 459
########## Name        : ZINC00001878
########## Description : AM1BCC_CHARGES =  -0.0001 ORIGINAL_CHARGES =   0.0000

@<TRIPOS>MOLECULE
ZINC00001878
53    56    1     0     0    
SMALL
USER_CHARGES
****
****
@<TRIPOS>ATOM
1     C1      -2.1584    1.7325   -2.0650 C.3     1  LIG  -0.0952   0.0000 
2     C2      -0.8715    2.2615   -2.7573 C.3     1  LIG  -0.0334   0.0000 
3     C3      -0.6490    1.4101   -4.0426 C.3     1  LIG  -0.0731   0.0000 
4     C4      -1.3206    1.9421   -5.3128 C.3     1  LIG  -0.1812   0.0610 
5     C5      -2.4574    2.8975   -5.0710 C.2     1  LIG   0.4745   0.5090 
6     O1      -3.4921    2.9151   -5.7206 O.2     1  LIG  -0.4740  -0.5700 
7     C6      -2.2426    3.9419   -4.0002 C.2     1  LIG   0.4746   0.5090 
8     C7      -1.0013    3.7621   -3.1596 C.3     1  LIG  -0.1523   0.0610 
9     C8      -1.0189    4.7258   -1.9520 C.3     1  LIG  -0.0701   0.0000 
10    C9       0.1457    4.4881   -0.9754 C.3     1  LIG  -0.0715   0.0000 
11    C10      0.1721    3.0105   -0.5603 C.3     1  LIG  -0.0479   0.0000 
12    C11      0.3826    2.1446   -1.8216 C.3     1  LIG  -0.0530   0.0000 
13    C12      0.7436    0.7136   -1.3860 C.3     1  LIG  -0.0697   0.0000 
14    C13      2.1375    0.6886   -0.7116 C.3     1  LIG  -0.0619   0.0000 
15    C14      2.5029    1.9925    0.0623 C.3     1  LIG  -0.0672   0.0000 
16    C15      1.2007    2.6607    0.5444 C.3     1  LIG  -0.0588   0.0000 
17    C16      1.7063    3.7283    1.5176 C.3     1  LIG  -0.0702   0.0000 
18    C17      2.9626    3.0886    2.1684 C.3     1  LIG  -0.0744   0.0000 
19    C18      3.2436    1.7591    1.4086 C.3     1  LIG   0.1506   0.2800 
20    C19      4.7317    1.4339    1.3185 C.3     1  LIG  -0.1201   0.0000 
21    O2       2.6096    0.7047    2.1425 O.3     1  LIG  -0.5964  -0.6800 
22    C20      3.3625    2.9076   -0.8612 C.3     1  LIG  -0.0848   0.0000 
23    O3      -3.0372    4.8654   -3.9138 O.2     1  LIG  -0.4733  -0.5700 
24    H1       2.9897   -0.1431    1.8575 H       1  LIG   0.3974   0.4000 
25    H2      -0.1064    4.0518   -3.7389 H       1  LIG   0.0738   0.0000 
26    H3      -2.0040    0.7342   -1.6436 H       1  LIG   0.0451   0.0000 
27    H4      -2.5104    2.3827   -1.2605 H       1  LIG   0.0480   0.0000 
28    H5      -2.9920    1.6374   -2.7691 H       1  LIG   0.0393   0.0000 
29    H6       0.4238    1.3288   -4.2627 H       1  LIG   0.0509   0.0000 
30    H7      -0.9853    0.3791   -3.8698 H       1  LIG   0.0552   0.0000 
31    H8      -0.5826    2.4760   -5.9239 H       1  LIG   0.0673   0.0000 
32    H9      -1.6860    1.1016   -5.9132 H       1  LIG   0.0770   0.0000 
33    H10     -0.9757    5.7625   -2.3093 H       1  LIG   0.0570   0.0000 
34    H11     -1.9683    4.6365   -1.4087 H       1  LIG   0.0545   0.0000 
35    H12      1.0887    4.7853   -1.4462 H       1  LIG   0.0424   0.0000 
36    H13     -0.0034    5.1343   -0.1033 H       1  LIG   0.0498   0.0000 
37    H14     -0.8307    2.8504   -0.1269 H       1  LIG   0.0508   0.0000 
38    H15      1.2595    2.4700   -2.3990 H       1  LIG   0.0499   0.0000 
39    H16      0.0009    0.3317   -0.6753 H       1  LIG   0.0473   0.0000 
40    H17      0.7574    0.0182   -2.2313 H       1  LIG   0.0395   0.0000 
41    H18      2.1657   -0.1953   -0.0669 H       1  LIG   0.0400   0.0000 
42    H19      2.8945    0.4966   -1.4830 H       1  LIG   0.0375   0.0000 
43    H20      0.6141    1.9753    1.1911 H       1  LIG   0.0629   0.0000 
44    H21      1.9953    4.6531    1.0078 H       1  LIG   0.0411   0.0000 
45    H22      0.9532    3.9838    2.2700 H       1  LIG   0.0475   0.0000 
46    H23      3.8009    3.7900    2.0876 H       1  LIG   0.0457   0.0000 
47    H24      2.7802    2.9064    3.2336 H       1  LIG   0.0665   0.0000 
48    H25      5.1353    1.2107    2.3129 H       1  LIG   0.0484   0.0000 
49    H26      4.8977    0.5407    0.7062 H       1  LIG   0.0362   0.0000 
50    H27      5.3182    2.2558    0.8976 H       1  LIG   0.0499   0.0000 
51    H28      4.2288    2.3582   -1.2481 H       1  LIG   0.0324   0.0000 
52    H29      2.8395    3.3070   -1.7267 H       1  LIG   0.0377   0.0000 
53    H30      3.7573    3.7782   -0.3271 H       1  LIG   0.0377   0.0000 
@<TRIPOS>BOND
1     1     2     1
2     1     26    1
3     1     27    1
4     1     28    1
5     2     8     1
6     2     12    1
7     2     3     1
8     3     4     1
9     3     29    1
10    3     30    1
11    4     5     1
12    4     31    1
13    4     32    1
14    5     6     2
15    5     7     1
16    7     8     1
17    7     23    2
18    8     9     1
19    8     25    1
20    9     10    1
21    9     33    1
22    9     34    1
23    10    11    1
24    10    35    1
25    10    36    1
26    11    16    1
27    11    12    1
28    11    37    1
29    12    13    1
30    12    38    1
31    13    14    1
32    13    39    1
33    13    40    1
34    14    15    1
35    14    41    1
36    14    42    1
37    15    19    1
38    15    16    1
39    15    22    1
40    16    17    1
41    16    43    1
42    17    18    1
43    17    44    1
44    17    45    1
45    18    19    1
46    18    46    1
47    18    47    1
48    19    20    1
49    19    21    1
50    20    48    1
51    20    49    1
52    20    50    1
53    21    24    1
54    22    51    1
55    22    52    1
56    22    53    1
@<TRIPOS>SUBSTRUCTURE
1   LIG    1    
 
########## Number      : 460
########## Name        : ZINC00001880
########## Description : AM1BCC_CHARGES =   1.0003 ORIGINAL_CHARGES =   1.0000

@<TRIPOS>MOLECULE
ZINC00001880
42    46    1     0     0    
SMALL
USER_CHARGES
****
****
@<TRIPOS>ATOM
1     C1       4.8037   -4.6872   -6.4189 C.3     1  LIG   0.0824   0.5030 
2     C2       3.8495   -5.3901   -4.2395 C.3     1  LIG   0.1150   0.5030 
3     C3       3.2584   -4.9579   -2.9090 C.3     1  LIG  -0.0852   0.0000 
4     C4       2.7332   -3.4984   -2.8314 C.3     1  LIG  -0.0779   0.1435 
5     C5       3.7442   -2.6747   -2.1617 C.ar    1  LIG  -0.1605  -0.1435 
6     C6       4.7593   -1.9707   -2.7671 C.ar    1  LIG  -0.1251  -0.1435 
7     C7       5.5984   -1.2815   -1.8971 C.ar    1  LIG  -0.0908  -0.1500 
8     C8       5.3677   -1.3211   -0.4934 C.ar    1  LIG  -0.1167  -0.1500 
9     C9       4.2699   -2.0086    0.0559 C.ar    1  LIG   0.1659   0.0825 
10    C10      3.4350   -2.6683   -0.8047 C.ar    1  LIG   0.0229   0.0825 
11    O1       2.2192   -3.3184   -0.5554 O.3     1  LIG  -0.2754  -0.3625 
12    C11      1.6151   -3.1990   -1.8643 C.3     1  LIG   0.0434   0.3410 
13    C12      0.4918   -4.1369   -2.2197 C.2     1  LIG   0.5724   0.4480 
14    O2      -0.0749   -4.8623   -1.4108 O.2     1  LIG  -0.4533  -0.5700 
15    C13      0.0517   -4.0187   -3.7016 C.3     1  LIG  -0.1896   0.0610 
16    C14      1.2083   -3.8563   -4.7523 C.3     1  LIG  -0.0563   0.0000 
17    C15      2.3787   -2.9851   -4.2271 C.3     1  LIG   0.1727   0.2800 
18    C16      3.7654   -2.9427   -4.9762 C.3     1  LIG   0.1089   0.5030 
19    C17      4.7633   -1.9044   -4.2794 C.3     1  LIG  -0.0507   0.1435 
20    O3       1.8503   -1.6483   -4.2010 O.3     1  LIG  -0.5670  -0.6800 
21    O4       4.0503   -1.9683    1.3958 O.3     1  LIG  -0.4637  -0.5325 
22    H1       2.4146   -1.0710   -3.6614 H       1  LIG   0.4293   0.4000 
23    H2       3.2462   -2.4853    1.5811 H       1  LIG   0.4509   0.4500 
24    H3       5.3783   -5.6171   -6.3986 H       1  LIG   0.1037   0.0000 
25    H4       3.8536   -4.8238   -6.9426 H       1  LIG   0.1047   0.0000 
26    H5       5.3989   -3.8919   -6.8756 H       1  LIG   0.1035   0.0000 
27    H6       3.1190   -5.8696   -4.8945 H       1  LIG   0.0998   0.0000 
28    H7       4.6213   -6.1498   -4.0618 H       1  LIG   0.1006   0.0000 
29    H8       2.4596   -5.6717   -2.6736 H       1  LIG   0.1025   0.0000 
30    H9       4.0136   -5.1378   -2.1302 H       1  LIG   0.0997   0.0000 
31    H10      6.4239   -0.6880   -2.2816 H       1  LIG   0.1558   0.1500 
32    H11      6.0399   -0.7723    0.1633 H       1  LIG   0.1780   0.1500 
33    H12      1.2217   -2.1641   -1.9489 H       1  LIG   0.0993   0.0000 
34    H13     -0.5447   -4.9006   -3.9594 H       1  LIG   0.0970   0.0000 
35    H14     -0.6062   -3.1434   -3.7603 H       1  LIG   0.0989   0.0000 
36    H15      1.5042   -4.8519   -5.0709 H       1  LIG   0.0407   0.0000 
37    H16      0.7780   -3.3859   -5.6462 H       1  LIG   0.0917   0.0000 
38    H17      3.6101   -2.5865   -6.0097 H       1  LIG   0.1169   0.0000 
39    H18      4.4549   -0.8917   -4.5686 H       1  LIG   0.1077   0.0000 
40    H19      5.7830   -2.0477   -4.6563 H       1  LIG   0.0722   0.0000 
41    N1       4.5140   -4.2891   -4.9871 N.4     1  LIG  -0.6777  -0.9590 
42    H20      5.4550   -4.1658   -4.5704 H       1  LIG   0.4537   0.4500 
@<TRIPOS>BOND
1     1     24    1
2     1     25    1
3     1     26    1
4     1     41    1
5     2     3     1
6     2     27    1
7     2     28    1
8     2     41    1
9     3     4     1
10    3     29    1
11    3     30    1
12    4     12    1
13    4     17    1
14    4     5     1
15    5     10    ar
16    5     6     ar
17    6     19    1
18    6     7     ar
19    7     8     ar
20    7     31    1
21    8     9     ar
22    8     32    1
23    9     10    ar
24    9     21    1
25    10    11    1
26    11    12    1
27    12    13    1
28    12    33    1
29    13    14    2
30    13    15    1
31    15    16    1
32    15    34    1
33    15    35    1
34    16    17    1
35    16    36    1
36    16    37    1
37    17    18    1
38    17    20    1
39    18    19    1
40    18    38    1
41    18    41    1
42    19    39    1
43    19    40    1
44    20    22    1
45    21    23    1
46    41    42    1
@<TRIPOS>SUBSTRUCTURE
1   LIG    1    
 
########## Number      : 461
########## Name        : ZINC00001883
########## Description : AM1BCC_CHARGES =   0.0001 ORIGINAL_CHARGES =   0.0000

@<TRIPOS>MOLECULE
ZINC00001883
34    36    1     0     0    
SMALL
USER_CHARGES
****
****
@<TRIPOS>ATOM
1     C1       6.1386   -8.0128    3.2925 C.ar    1  LIG  -0.1384  -0.1500 
2     C2       5.3506   -9.1428    3.5260 C.ar    1  LIG  -0.1693  -0.1500 
3     C3       4.3621   -9.4911    2.6106 C.ar    1  LIG   0.0388   0.0825 
4     C4       4.1639   -8.7207    1.4690 C.ar    1  LIG   0.1154   0.0825 
5     C5       4.9463   -7.5932    1.2314 C.ar    1  LIG  -0.1204  -0.1500 
6     C6       5.9390   -7.2199    2.1506 C.ar    1  LIG  -0.0737  -0.1435 
7     C7       6.8059   -6.0062    1.9030 C.3     1  LIG  -0.0909   0.2870 
8     C8       6.0377   -4.7111    1.7443 C.ar    1  LIG   0.4426   0.1665 
9     C9       5.5034   -3.9970    2.8445 C.ar    1  LIG  -0.1440   0.0000 
10    C10      5.6443   -4.3752    4.2018 C.ar    1  LIG  -0.1572  -0.1500 
11    C11      5.0780   -3.6100    5.2210 C.ar    1  LIG   0.0569   0.0825 
12    C12      4.3671   -2.4585    4.9168 C.ar    1  LIG   0.1359   0.0825 
13    C13      4.2146   -2.0574    3.5947 C.ar    1  LIG  -0.1501  -0.1500 
14    C14      4.7770   -2.8151    2.5539 C.ar    1  LIG  -0.0012   0.0000 
15    C15      4.6230   -2.4073    1.2274 C.ar    1  LIG  -0.2299  -0.1500 
16    C16      5.1896   -3.1758    0.2298 C.ar    1  LIG   0.3898   0.1600 
17    N1       5.8855   -4.3064    0.4549 N.ar    1  LIG  -0.6723  -0.6200 
18    O1       3.8044   -1.6939    5.8993 O.3     1  LIG  -0.4908  -0.5325 
19    O2       5.2105   -3.9733    6.5321 O.3     1  LIG  -0.5159  -0.5325 
20    O3       3.2029   -9.0499    0.5545 O.3     1  LIG  -0.4912  -0.5325 
21    O4       3.5740  -10.5899    2.8082 O.3     1  LIG  -0.5159  -0.5325 
22    H1       4.0103   -2.1215    6.7500 H       1  LIG   0.4405   0.4500 
23    H2       5.7264   -4.7965    6.5770 H       1  LIG   0.4321   0.4500 
24    H3       2.7608   -9.8546    0.8799 H       1  LIG   0.4365   0.4500 
25    H4       3.8387  -11.0146    3.6422 H       1  LIG   0.4286   0.4500 
26    H5       6.9122   -7.7549    4.0119 H       1  LIG   0.1283   0.1500 
27    H6       5.5211   -9.7375    4.4186 H       1  LIG   0.1339   0.1500 
28    H7       4.7828   -7.0080    0.3298 H       1  LIG   0.1698   0.1500 
29    H8       7.5564   -5.8873    2.6942 H       1  LIG   0.0558   0.0000 
30    H9       7.3886   -6.1949    0.9908 H       1  LIG   0.0832   0.0000 
31    H10      6.2014   -5.2677    4.4700 H       1  LIG   0.1443   0.1500 
32    H11      3.6548   -1.1499    3.3768 H       1  LIG   0.1589   0.1500 
33    H12      4.0734   -1.5074    0.9681 H       1  LIG   0.1462   0.1500 
34    H13      5.0933   -2.8924   -0.8133 H       1  LIG   0.0238   0.1500 
@<TRIPOS>BOND
1     1     6     ar
2     1     2     ar
3     1     26    1
4     2     3     ar
5     2     27    1
6     3     4     ar
7     3     21    1
8     4     5     ar
9     4     20    1
10    5     6     ar
11    5     28    1
12    6     7     1
13    7     8     1
14    7     29    1
15    7     30    1
16    8     17    ar
17    8     9     ar
18    9     14    ar
19    9     10    ar
20    10    11    ar
21    10    31    1
22    11    12    ar
23    11    19    1
24    12    13    ar
25    12    18    1
26    13    14    ar
27    13    32    1
28    14    15    ar
29    15    16    ar
30    15    33    1
31    16    17    ar
32    16    34    1
33    18    22    1
34    19    23    1
35    20    24    1
36    21    25    1
@<TRIPOS>SUBSTRUCTURE
1   LIG    1    
 
########## Number      : 462
########## Name        : ZINC00001885
########## Description : AM1BCC_CHARGES =   0.0000 ORIGINAL_CHARGES =  -0.0000

@<TRIPOS>MOLECULE
ZINC00001885
13    13    1     0     0    
SMALL
USER_CHARGES
****
****
@<TRIPOS>ATOM
1     C1       4.8055   -8.3748   -1.0557 C.ar    1  LIG  -0.2067  -0.1500 
2     C2       3.5567   -8.8474   -0.6504 C.ar    1  LIG  -0.0845  -0.1500 
3     C3       3.1707   -8.7264    0.6857 C.ar    1  LIG  -0.0198   0.1770 
4     C4       4.0232   -8.1365    1.6203 C.ar    1  LIG  -0.0902  -0.1500 
5     C5       5.2714   -7.6641    1.2147 C.ar    1  LIG  -0.1493  -0.1500 
6     C6       5.6541   -7.7862   -0.1193 C.ar    1  LIG   0.1258   0.0825 
7     O1       6.8834   -7.3130   -0.4825 O.3     1  LIG  -0.4943  -0.5325 
8     Cl1      1.6293   -9.3101    1.1851 Cl      1  LIG  -0.0954  -0.1770 
9     H1       7.0065   -7.4676   -1.4346 H       1  LIG   0.4212   0.4500 
10    H2       5.1020   -8.4708   -2.0961 H       1  LIG   0.1387   0.1500 
11    H3       2.8964   -9.3060   -1.3816 H       1  LIG   0.1485   0.1500 
12    H4       3.7279   -8.0396    2.6616 H       1  LIG   0.1500   0.1500 
13    H5       5.9377   -7.2043    1.9391 H       1  LIG   0.1560   0.1500 
@<TRIPOS>BOND
1     1     6     ar
2     1     2     ar
3     1     10    1
4     2     3     ar
5     2     11    1
6     3     4     ar
7     3     8     1
8     4     5     ar
9     4     12    1
10    5     6     ar
11    5     13    1
12    6     7     1
13    7     9     1
@<TRIPOS>SUBSTRUCTURE
1   LIG    1    
 
########## Number      : 463
########## Name        : ZINC00001886
########## Description : AM1BCC_CHARGES =   0.0000 ORIGINAL_CHARGES =   0.0000

@<TRIPOS>MOLECULE
ZINC00001886
21    21    1     0     0    
SMALL
USER_CHARGES
****
****
@<TRIPOS>ATOM
1     C1       7.0160   -9.0014   -1.5670 C.3     1  LIG  -0.0856   0.0000 
2     C2       5.7433   -9.2533   -0.7766 C.3     1  LIG   0.3356   0.5600 
3     O1       4.8136   -9.9101   -1.6361 O.3     1  LIG  -0.4554  -0.5600 
4     C3       3.5743  -10.0885   -0.9528 C.3     1  LIG   0.3356   0.5600 
5     O2       3.0314   -8.8468   -0.5062 O.3     1  LIG  -0.4538  -0.5600 
6     C4       3.9661   -8.1154    0.2893 C.3     1  LIG   0.3369   0.5600 
7     O3       5.2497   -7.9926   -0.3260 O.3     1  LIG  -0.4538  -0.5600 
8     C5       4.0568   -8.6519    1.7146 C.3     1  LIG  -0.1510   0.0000 
9     C6       2.5861  -10.7071   -1.9269 C.3     1  LIG  -0.0856   0.0000 
10    H1       7.4350   -9.9393   -1.9448 H       1  LIG   0.0534   0.0000 
11    H2       6.8118   -8.3614   -2.4329 H       1  LIG   0.0673   0.0000 
12    H3       7.7647   -8.4917   -0.9524 H       1  LIG   0.0526   0.0000 
13    H4       5.9822   -9.8973    0.0783 H       1  LIG   0.0331   0.0000 
14    H5       3.7086  -10.7727   -0.1064 H       1  LIG   0.0330   0.0000 
15    H6       3.5685   -7.0971    0.3563 H       1  LIG   0.1059   0.0000 
16    H7       3.0669   -8.6716    2.1813 H       1  LIG   0.0594   0.0000 
17    H8       4.4472   -9.6730    1.7497 H       1  LIG   0.0397   0.0000 
18    H9       4.7288   -8.0317    2.3163 H       1  LIG   0.0593   0.0000 
19    H10      2.9581  -11.6632   -2.3085 H       1  LIG   0.0534   0.0000 
20    H11      1.6119  -10.8609   -1.4523 H       1  LIG   0.0528   0.0000 
21    H12      2.4306  -10.0484   -2.7888 H       1  LIG   0.0672   0.0000 
@<TRIPOS>BOND
1     1     2     1
2     1     10    1
3     1     11    1
4     1     12    1
5     2     7     1
6     2     3     1
7     2     13    1
8     3     4     1
9     4     5     1
10    4     9     1
11    4     14    1
12    5     6     1
13    6     7     1
14    6     8     1
15    6     15    1
16    8     16    1
17    8     17    1
18    8     18    1
19    9     19    1
20    9     20    1
21    9     21    1
@<TRIPOS>SUBSTRUCTURE
1   LIG    1    
 
########## Number      : 464
########## Name        : ZINC00001890
########## Description : AM1BCC_CHARGES =  -0.0000 ORIGINAL_CHARGES =   0.0000

@<TRIPOS>MOLECULE
ZINC00001890
21    21    1     0     0    
SMALL
USER_CHARGES
****
****
@<TRIPOS>ATOM
1     C1       5.2463  -10.5550   -0.5719 C.3     1  LIG  -0.0879   0.0000 
2     C2       4.8934   -9.0787   -0.4811 C.3     1  LIG  -0.1758   0.0610 
3     C3       4.2582   -8.5579   -1.7602 C.2     1  LIG   0.5799   0.4228 
4     O1       4.0681   -9.2806   -2.7359 O.2     1  LIG  -0.5385  -0.5700 
5     C4       3.8545   -7.1218   -1.8269 C.ar    1  LIG  -0.2137   0.0862 
6     C5       4.0443   -6.2474   -0.7494 C.ar    1  LIG  -0.0507  -0.1500 
7     C6       3.6528   -4.9096   -0.8513 C.ar    1  LIG  -0.2318  -0.1500 
8     C7       3.0724   -4.4481   -2.0298 C.ar    1  LIG   0.1532   0.0825 
9     C8       2.8777   -5.3050   -3.1078 C.ar    1  LIG  -0.1726  -0.1500 
10    C9       3.2684   -6.6415   -3.0072 C.ar    1  LIG  -0.0411  -0.1500 
11    O2       2.6793   -3.1465   -2.1602 O.3     1  LIG  -0.4914  -0.5325 
12    H1       2.8785   -2.6774   -1.3321 H       1  LIG   0.4228   0.4500 
13    H2       5.7004  -10.8960    0.3636 H       1  LIG   0.0340   0.0000 
14    H3       4.3544  -11.1619   -0.7603 H       1  LIG   0.0483   0.0000 
15    H4       5.9566  -10.7405   -1.3844 H       1  LIG   0.0486   0.0000 
16    H5       4.1901   -8.9364    0.3462 H       1  LIG   0.0632   0.0000 
17    H6       5.8089   -8.5107   -0.2844 H       1  LIG   0.0633   0.0000 
18    H7       4.4939   -6.5760    0.1827 H       1  LIG   0.1356   0.1500 
19    H8       3.8064   -4.2432   -0.0072 H       1  LIG   0.1373   0.1500 
20    H9       2.4245   -4.9419   -4.0260 H       1  LIG   0.1567   0.1500 
21    H10      3.1077   -7.2952   -3.8610 H       1  LIG   0.1606   0.1500 
@<TRIPOS>BOND
1     1     2     1
2     1     13    1
3     1     14    1
4     1     15    1
5     2     3     1
6     2     16    1
7     2     17    1
8     3     4     2
9     3     5     1
10    5     10    ar
11    5     6     ar
12    6     7     ar
13    6     18    1
14    7     8     ar
15    7     19    1
16    8     9     ar
17    8     11    1
18    9     10    ar
19    9     20    1
20    10    21    1
21    11    12    1
@<TRIPOS>SUBSTRUCTURE
1   LIG    1    
 
########## Number      : 465
########## Name        : ZINC00001891
########## Description : AM1BCC_CHARGES =  -0.0000 ORIGINAL_CHARGES =   0.0000

@<TRIPOS>MOLECULE
ZINC00001891
35    37    1     0     0    
SMALL
USER_CHARGES
****
****
@<TRIPOS>ATOM
1     C1       4.6018   -6.5867   -0.9447 C.ar    1  LIG  -0.1077  -0.1500 
2     C2       4.2073   -5.7419    0.0904 C.ar    1  LIG  -0.1213  -0.1500 
3     C3       2.8528   -5.4885    0.3056 C.ar    1  LIG  -0.0772  -0.1500 
4     C4       1.8901   -6.0836   -0.5192 C.ar    1  LIG  -0.1385   0.0862 
5     C5       2.2808   -6.9279   -1.5539 C.ar    1  LIG  -0.1234   0.0862 
6     C6       3.6427   -7.1798   -1.7667 C.ar    1  LIG  -0.0879  -0.1500 
7     C7       1.2771   -7.5612   -2.4300 C.2     1  LIG   0.5790   0.4694 
8     O1       1.6484   -8.3013   -3.3349 O.2     1  LIG  -0.5160  -0.5700 
9     C8      -0.1745   -7.2789   -2.1859 C.2     1  LIG  -0.1763  -0.1238 
10    C9      -0.5280   -6.4593   -1.1794 C.2     1  LIG   0.0487   0.0911 
11    C10      0.4662   -5.8118   -0.2861 C.2     1  LIG   0.5559   0.4694 
12    O2       0.0975   -5.0715    0.6193 O.2     1  LIG  -0.5264  -0.5700 
13    O3      -1.8539   -6.1690   -0.9154 O.3     1  LIG  -0.4814  -0.5267 
14    C11     -1.1611   -7.9662   -3.1288 C.3     1  LIG  -0.0168   0.1382 
15    C12     -2.0891   -8.9557   -2.3989 C.3     1  LIG  -0.0721   0.0000 
16    C13     -3.0334   -9.6590   -3.3738 C.3     1  LIG  -0.0748   0.0000 
17    C14     -3.8283   -8.6595   -4.2087 C.3     1  LIG  -0.0768   0.0000 
18    C15     -2.9126   -7.6827   -4.9406 C.3     1  LIG  -0.0747   0.0000 
19    C16     -1.9675   -6.9648   -3.9774 C.3     1  LIG  -0.0721   0.0000 
20    H1      -1.8679   -5.5631   -0.1522 H       1  LIG   0.4422   0.4500 
21    H2       5.6570   -6.7840   -1.1123 H       1  LIG   0.1440   0.1500 
22    H3       4.9545   -5.2805    0.7299 H       1  LIG   0.1441   0.1500 
23    H4       2.5647   -4.8265    1.1184 H       1  LIG   0.1595   0.1500 
24    H5       3.9747   -7.8354   -2.5680 H       1  LIG   0.1642   0.1500 
25    H6      -0.5937   -8.5713   -3.8483 H       1  LIG   0.0790   0.0000 
26    H7      -1.4920   -9.7085   -1.8697 H       1  LIG   0.0399   0.0000 
27    H8      -2.6927   -8.4422   -1.6419 H       1  LIG   0.0556   0.0000 
28    H9      -2.4529  -10.3105   -4.0385 H       1  LIG   0.0402   0.0000 
29    H10     -3.7223  -10.3044   -2.8172 H       1  LIG   0.0387   0.0000 
30    H11     -4.4482   -9.1973   -4.9349 H       1  LIG   0.0372   0.0000 
31    H12     -4.5113   -8.1009   -3.5569 H       1  LIG   0.0409   0.0000 
32    H13     -2.3255   -8.2251   -5.6919 H       1  LIG   0.0401   0.0000 
33    H14     -3.5170   -6.9451   -5.4805 H       1  LIG   0.0387   0.0000 
34    H15     -2.5619   -6.2999   -3.3404 H       1  LIG   0.0557   0.0000 
35    H16     -1.2853   -6.3258   -4.5516 H       1  LIG   0.0398   0.0000 
@<TRIPOS>BOND
1     1     6     ar
2     1     2     ar
3     1     21    1
4     2     3     ar
5     2     22    1
6     3     4     ar
7     3     23    1
8     4     11    1
9     4     5     ar
10    5     6     ar
11    5     7     1
12    6     24    1
13    7     8     2
14    7     9     1
15    9     10    2
16    9     14    1
17    10    11    1
18    10    13    1
19    11    12    2
20    13    20    1
21    14    19    1
22    14    15    1
23    14    25    1
24    15    16    1
25    15    26    1
26    15    27    1
27    16    17    1
28    16    28    1
29    16    29    1
30    17    18    1
31    17    30    1
32    17    31    1
33    18    19    1
34    18    32    1
35    18    33    1
36    19    34    1
37    19    35    1
@<TRIPOS>SUBSTRUCTURE
1   LIG    1    
 
########## Number      : 466
########## Name        : ZINC00001892
########## Description : AM1BCC_CHARGES =  -0.0002 ORIGINAL_CHARGES =   0.0000

@<TRIPOS>MOLECULE
ZINC00001892
30    31    1     0     0    
SMALL
USER_CHARGES
****
****
@<TRIPOS>ATOM
1     C1       6.6264  -10.2357   -1.8144 C.3     1  LIG   0.0909   0.3001 
2     N1       5.5157   -9.5916   -1.1547 N.am    1  LIG  -0.5595  -0.7301 
3     C2       5.4616   -8.2401   -0.8946 C.2     1  LIG   0.7431   0.7800 
4     O1       6.3305   -7.4236   -1.1827 O.2     1  LIG  -0.5667  -0.5700 
5     O2       4.2631   -7.9445   -0.2515 O.3     1  LIG  -0.3796  -0.2325 
6     C3       4.1153   -6.5896    0.0562 C.ar    1  LIG   0.1183   0.0825 
7     C4       4.5528   -6.1194    1.2903 C.ar    1  LIG  -0.1229  -0.1500 
8     C5       4.3719   -4.7717    1.6071 C.ar    1  LIG  -0.1108  -0.1500 
9     C6       3.7456   -3.8880    0.7063 C.ar    1  LIG  -0.0356   0.0000 
10    C7       3.3011   -4.4047   -0.5266 C.ar    1  LIG  -0.1106  -0.1500 
11    C8       3.4781   -5.7508   -0.8526 C.ar    1  LIG  -0.1233  -0.1500 
12    C9       3.5575   -2.4648    1.0459 C.ar    1  LIG  -0.0412   0.0000 
13    C10      2.3112   -1.8354    0.8770 C.ar    1  LIG  -0.1179  -0.1500 
14    C11      2.1332   -0.4871    1.1992 C.ar    1  LIG  -0.1309  -0.1500 
15    C12      3.1983    0.2586    1.6960 C.ar    1  LIG  -0.1263  -0.1500 
16    C13      4.4411   -0.3431    1.8711 C.ar    1  LIG  -0.1305  -0.1500 
17    C14      4.6188   -1.6915    1.5496 C.ar    1  LIG  -0.1163  -0.1500 
18    H1       4.7286  -10.1620   -0.8642 H       1  LIG   0.3326   0.3700 
19    H2       6.2505  -10.7240   -2.7168 H       1  LIG   0.0347   0.0000 
20    H3       7.4053   -9.5167   -2.0789 H       1  LIG   0.0783   0.0000 
21    H4       7.0333  -10.9913   -1.1379 H       1  LIG   0.0319   0.0000 
22    H5       5.0301   -6.7865    2.0016 H       1  LIG   0.1467   0.1500 
23    H6       4.7162   -4.4173    2.5768 H       1  LIG   0.1401   0.1500 
24    H7       2.8163   -3.7558   -1.2533 H       1  LIG   0.1401   0.1500 
25    H8       3.1253   -6.1307   -1.8065 H       1  LIG   0.1469   0.1500 
26    H9       1.4571   -2.3944    0.4999 H       1  LIG   0.1348   0.1500 
27    H10      1.1610   -0.0217    1.0631 H       1  LIG   0.1320   0.1500 
28    H11      3.0601    1.3064    1.9461 H       1  LIG   0.1317   0.1500 
29    H12      5.2755    0.2361    2.2565 H       1  LIG   0.1327   0.1500 
30    H13      5.6046   -2.1310    1.6882 H       1  LIG   0.1371   0.1500 
@<TRIPOS>BOND
1     1     2     1
2     1     19    1
3     1     20    1
4     1     21    1
5     2     3     am
6     2     18    1
7     3     4     2
8     3     5     1
9     5     6     1
10    6     11    ar
11    6     7     ar
12    7     8     ar
13    7     22    1
14    8     9     ar
15    8     23    1
16    9     10    ar
17    9     12    1
18    10    11    ar
19    10    24    1
20    11    25    1
21    12    17    ar
22    12    13    ar
23    13    14    ar
24    13    26    1
25    14    15    ar
26    14    27    1
27    15    16    ar
28    15    28    1
29    16    17    ar
30    16    29    1
31    17    30    1
@<TRIPOS>SUBSTRUCTURE
1   LIG    1    
 
########## Number      : 467
########## Name        : ZINC00001895
########## Description : AM1BCC_CHARGES =  -0.0001 ORIGINAL_CHARGES =   0.0000

@<TRIPOS>MOLECULE
ZINC00001895
26    28    1     0     0    
SMALL
USER_CHARGES
****
****
@<TRIPOS>ATOM
1     C1       6.2490   -1.8759    2.2641 C.ar    1  LIG  -0.1366  -0.1500 
2     C2       6.2947   -1.8269    0.8727 C.ar    1  LIG  -0.1234  -0.1500 
3     C3       5.5527   -2.7345    0.1156 C.ar    1  LIG  -0.1059  -0.1500 
4     C4       4.7577   -3.7022    0.7401 C.ar    1  LIG   0.1522   0.1790 
5     C5       4.7146   -3.7512    2.1528 C.ar    1  LIG  -0.1325  -0.1435 
6     C6       5.4616   -2.8326    2.9035 C.ar    1  LIG  -0.1130  -0.1500 
7     C7       3.8581   -4.7735    2.8678 C.3     1  LIG   0.2573   0.5126 
8     N1       3.2590   -5.6775    1.9183 N.pl3   1  LIG  -0.7490  -0.7882 
9     C8       2.3372   -6.7269    2.2946 C.3     1  LIG   0.1992   0.3691 
10    C9       2.2226   -7.5370    0.9958 C.3     1  LIG  -0.0951   0.0000 
11    C10      2.4965   -6.5257   -0.1311 C.3     1  LIG   0.1163   0.3410 
12    C11      3.3535   -5.5007    0.5610 C.2     1  LIG   0.5741   0.4390 
13    N2       4.0250   -4.5962   -0.0751 N.2     1  LIG  -0.6239  -0.6290 
14    O1       3.2335   -7.1483   -1.1627 O.3     1  LIG  -0.5873  -0.6800 
15    H1       3.4623   -6.4568   -1.8079 H       1  LIG   0.4258   0.4000 
16    H2       6.8264   -1.1675    2.8514 H       1  LIG   0.1326   0.1500 
17    H3       6.9081   -1.0807    0.3755 H       1  LIG   0.1329   0.1500 
18    H4       5.5966   -2.6846   -0.9696 H       1  LIG   0.1469   0.1500 
19    H5       5.4325   -2.8588    3.9900 H       1  LIG   0.1308   0.1500 
20    H6       4.4779   -5.3404    3.5714 H       1  LIG   0.0332   0.0000 
21    H7       3.0731   -4.2528    3.4278 H       1  LIG   0.0572   0.0000 
22    H8       2.7149   -7.3394    3.1186 H       1  LIG   0.0403   0.0000 
23    H9       1.3690   -6.2982    2.5738 H       1  LIG   0.0574   0.0000 
24    H10      2.9724   -8.3386    0.9842 H       1  LIG   0.0804   0.0000 
25    H11      1.2416   -8.0119    0.8953 H       1  LIG   0.0630   0.0000 
26    H12      1.5583   -6.1268   -0.5352 H       1  LIG   0.0670   0.0000 
@<TRIPOS>BOND
1     1     6     ar
2     1     2     ar
3     1     16    1
4     2     3     ar
5     2     17    1
6     3     4     ar
7     3     18    1
8     4     13    1
9     4     5     ar
10    5     6     ar
11    5     7     1
12    6     19    1
13    7     8     1
14    7     20    1
15    7     21    1
16    8     12    1
17    8     9     1
18    9     10    1
19    9     22    1
20    9     23    1
21    10    11    1
22    10    24    1
23    10    25    1
24    11    12    1
25    11    14    1
26    11    26    1
27    12    13    2
28    14    15    1
@<TRIPOS>SUBSTRUCTURE
1   LIG    1    
 
########## Number      : 468
########## Name        : ZINC00001900
########## Description : AM1BCC_CHARGES =   0.0002 ORIGINAL_CHARGES =   0.0000

@<TRIPOS>MOLECULE
ZINC00001900
30    30    1     0     0    
SMALL
USER_CHARGES
****
****
@<TRIPOS>ATOM
1     C1       5.2757   -7.8337    1.0322 C.3     1  LIG   0.2210   0.3691 
2     N1       4.2829   -7.5194    0.0376 N.pl3   1  LIG  -0.8705  -0.8691 
3     C2       3.4341   -6.4364    0.1729 C.ar    1  LIG   0.9452   0.7200 
4     N2       3.5186   -5.6421    1.2523 N.ar    1  LIG  -0.8553  -0.6200 
5     C3       2.6673   -4.6045    1.3330 C.ar    1  LIG   0.9342   0.7200 
6     N3       1.7598   -4.3590    0.3693 N.ar    1  LIG  -0.8548  -0.6200 
7     C4       1.7139   -5.1824   -0.6952 C.ar    1  LIG   0.9362   0.7200 
8     N4       2.5457   -6.2330   -0.8117 N.ar    1  LIG  -0.8640  -0.6200 
9     N5       0.7763   -4.9425   -1.6979 N.pl3   1  LIG  -0.7473  -0.8382 
10    C5       0.0085   -3.7108   -1.6635 C.3     1  LIG   0.2003   0.3691 
11    C6       0.8467   -5.7113   -2.9272 C.3     1  LIG   0.1999   0.3691 
12    N6       2.7296   -3.7583    2.4384 N.pl3   1  LIG  -0.7481  -0.8382 
13    C7       3.5747   -4.1261    3.5599 C.3     1  LIG   0.2004   0.3691 
14    C8       1.6953   -2.7553    2.6161 C.3     1  LIG   0.2001   0.3691 
15    H1       4.1866   -8.0931   -0.7899 H       1  LIG   0.4491   0.4000 
16    H2       5.8334   -8.7243    0.7267 H       1  LIG   0.0372   0.0000 
17    H3       5.9917   -7.0136    1.1485 H       1  LIG   0.0392   0.0000 
18    H4       4.8112   -8.0453    2.0009 H       1  LIG   0.0490   0.0000 
19    H5      -0.7642   -3.7030   -2.4397 H       1  LIG   0.0402   0.0000 
20    H6      -0.5062   -3.5896   -0.7037 H       1  LIG   0.0633   0.0000 
21    H7       0.6585   -2.8450   -1.8304 H       1  LIG   0.0290   0.0000 
22    H8      -0.0108   -5.5020   -3.5758 H       1  LIG   0.0403   0.0000 
23    H9       1.7561   -5.4649   -3.4860 H       1  LIG   0.0280   0.0000 
24    H10      0.8342   -6.7880   -2.7242 H       1  LIG   0.0633   0.0000 
25    H11      3.6175   -3.3237    4.3044 H       1  LIG   0.0401   0.0000 
26    H12      3.1893   -5.0228    4.0571 H       1  LIG   0.0293   0.0000 
27    H13      4.6051   -4.3131    3.2371 H       1  LIG   0.0629   0.0000 
28    H14      1.9269   -2.0910    3.4557 H       1  LIG   0.0401   0.0000 
29    H15      1.5997   -2.1207    1.7279 H       1  LIG   0.0630   0.0000 
30    H16      0.7288   -3.2283    2.8212 H       1  LIG   0.0289   0.0000 
@<TRIPOS>BOND
1     1     2     1
2     1     16    1
3     1     17    1
4     1     18    1
5     2     3     1
6     2     15    1
7     3     8     ar
8     3     4     ar
9     4     5     ar
10    5     6     ar
11    5     12    1
12    6     7     ar
13    7     8     ar
14    7     9     1
15    9     10    1
16    9     11    1
17    10    19    1
18    10    20    1
19    10    21    1
20    11    22    1
21    11    23    1
22    11    24    1
23    12    13    1
24    12    14    1
25    13    25    1
26    13    26    1
27    13    27    1
28    14    28    1
29    14    29    1
30    14    30    1
@<TRIPOS>SUBSTRUCTURE
1   LIG    1    
 
########## Number      : 469
########## Name        : ZINC00001904
########## Description : AM1BCC_CHARGES =   0.0002 ORIGINAL_CHARGES =   0.0000

@<TRIPOS>MOLECULE
ZINC00001904
34    36    1     0     0    
SMALL
USER_CHARGES
****
****
@<TRIPOS>ATOM
1     C1       7.6648   -6.2558    0.0834 C.3     1  LIG  -0.0649   0.1382 
2     C2       7.9431   -7.1275    1.2752 C.2     1  LIG  -0.0906  -0.2764 
3     C3       7.0483   -7.4508    2.2283 C.2     1  LIG  -0.2053  -0.2882 
4     C4       5.6026   -7.0581    2.3056 C.3     1  LIG   0.1654   0.4182 
5     O1       5.3999   -6.2085    3.4435 O.3     1  LIG  -0.3068  -0.3625 
6     C5       5.2680   -4.8992    3.0594 C.ar    1  LIG   0.0862   0.0825 
7     C6       4.0265   -4.3562    2.7121 C.ar    1  LIG   0.1480   0.0825 
8     C7       3.8737   -3.0186    2.3460 C.ar    1  LIG  -0.1624   0.0284 
9     C8       2.5487   -2.5363    1.9868 C.2     1  LIG  -0.0104  -0.1784 
10    C9       1.4999   -3.3622    2.0116 C.2     1  LIG  -0.2539  -0.1356 
11    C10      1.6303   -4.7778    2.3976 C.2     1  LIG   0.7178   0.7056 
12    O2       0.6573   -5.5232    2.4152 O.2     1  LIG  -0.5594  -0.5700 
13    O3       2.9043   -5.2170    2.7364 O.3     1  LIG  -0.3127  -0.2325 
14    C11      4.9884   -2.1633    2.3308 C.ar    1  LIG  -0.0353  -0.1500 
15    C12      6.2488   -2.6756    2.6990 C.ar    1  LIG  -0.1242   0.0000 
16    C13      6.3482   -4.0171    3.0569 C.ar    1  LIG   0.0915   0.1400 
17    O4       7.6354   -4.3202    3.3885 O.3     1  LIG  -0.1790  -0.2800 
18    C14      8.3621   -3.1836    3.2358 C.2     1  LIG  -0.0095  -0.0100 
19    C15      7.5618   -2.1470    2.8153 C.2     1  LIG  -0.1752  -0.1500 
20    C16      9.3603   -7.6292    1.3590 C.3     1  LIG  -0.0640   0.1382 
21    H1       7.7916   -6.8302   -0.8401 H       1  LIG   0.0453   0.0000 
22    H2       6.6585   -5.8325    0.0750 H       1  LIG   0.0401   0.0000 
23    H3       8.3650   -5.4135    0.0636 H       1  LIG   0.0439   0.0000 
24    H4       7.3814   -8.0769    3.0550 H       1  LIG   0.1320   0.1500 
25    H5       5.2123   -6.6256    1.3779 H       1  LIG   0.0504   0.0000 
26    H6       5.0130   -7.9658    2.4807 H       1  LIG   0.0760   0.0000 
27    H7       2.4275   -1.4975    1.6995 H       1  LIG   0.1477   0.1500 
28    H8       0.5090   -3.0114    1.7456 H       1  LIG   0.1703   0.1500 
29    H9       4.8884   -1.1188    2.0480 H       1  LIG   0.1477   0.1500 
30    H10      9.4151   -3.2700    3.4615 H       1  LIG   0.1956   0.1500 
31    H11      7.8839   -1.1341    2.6190 H       1  LIG   0.1686   0.1500 
32    H12      9.5284   -8.2615    2.2371 H       1  LIG   0.0425   0.0000 
33    H13      9.6050   -8.2221    0.4716 H       1  LIG   0.0423   0.0000 
34    H14     10.0576   -6.7869    1.4184 H       1  LIG   0.0425   0.0000 
@<TRIPOS>BOND
1     1     2     1
2     1     21    1
3     1     22    1
4     1     23    1
5     2     3     2
6     2     20    1
7     3     4     1
8     3     24    1
9     4     5     1
10    4     25    1
11    4     26    1
12    5     6     1
13    6     16    ar
14    6     7     ar
15    7     13    1
16    7     8     ar
17    8     9     1
18    8     14    ar
19    9     10    2
20    9     27    1
21    10    11    1
22    10    28    1
23    11    12    2
24    11    13    1
25    14    15    ar
26    14    29    1
27    15    19    1
28    15    16    ar
29    16    17    1
30    17    18    1
31    18    19    2
32    18    30    1
33    19    31    1
34    20    32    1
35    20    33    1
36    20    34    1
@<TRIPOS>SUBSTRUCTURE
1   LIG    1    
 
########## Number      : 470
########## Name        : ZINC00001905
########## Description : AM1BCC_CHARGES =  -0.0002 ORIGINAL_CHARGES =   0.0000

@<TRIPOS>MOLECULE
ZINC00001905
20    21    1     0     0    
SMALL
USER_CHARGES
****
****
@<TRIPOS>ATOM
1     C1       5.3579   -6.8048   -1.2656 C.3     1  LIG  -0.0850   0.0000 
2     C2       4.9695   -7.5914   -0.0111 C.3     1  LIG  -0.0851   0.0000 
3     C3       5.2595   -9.0862   -0.1016 C.3     1  LIG  -0.1057   0.1800 
4     C4       4.2312   -9.8386   -0.8688 C.2     1  LIG   0.3914   0.0065 
5     N1       3.7929  -11.0556   -0.6111 N.2     1  LIG  -0.3827  -0.3381 
6     N2       2.8501  -11.3374   -1.5687 N.2     1  LIG  -0.0505   0.0000 
7     N3       2.7036  -10.3207   -2.4055 N.2     1  LIG  -0.1978  -0.4180 
8     N4       3.5711   -9.3869   -1.9800 N.pl3   1  LIG  -0.0743   0.3140 
9     C5       3.6621   -8.1189   -2.6662 C.3     1  LIG   0.0522   0.2556 
10    C6       5.0410   -7.4718   -2.6056 C.3     1  LIG  -0.0975   0.0000 
11    H1       6.4348   -6.5955   -1.2374 H       1  LIG   0.0496   0.0000 
12    H2       4.8607   -5.8275   -1.2231 H       1  LIG   0.0477   0.0000 
13    H3       5.5290   -7.1701    0.8336 H       1  LIG   0.0561   0.0000 
14    H4       3.9083   -7.4238    0.2141 H       1  LIG   0.0532   0.0000 
15    H5       6.2514   -9.2655   -0.5318 H       1  LIG   0.0721   0.0000 
16    H6       5.2816   -9.4940    0.9169 H       1  LIG   0.0862   0.0000 
17    H7       3.4101   -8.3103   -3.7162 H       1  LIG   0.0822   0.0000 
18    H8       2.8896   -7.4644   -2.2478 H       1  LIG   0.0646   0.0000 
19    H9       5.1085   -6.7045   -3.3868 H       1  LIG   0.0619   0.0000 
20    H10      5.8145   -8.2144   -2.8393 H       1  LIG   0.0612   0.0000 
@<TRIPOS>BOND
1     1     10    1
2     1     2     1
3     1     11    1
4     1     12    1
5     2     3     1
6     2     13    1
7     2     14    1
8     3     4     1
9     3     15    1
10    3     16    1
11    4     8     1
12    4     5     2
13    5     6     1
14    6     7     2
15    7     8     1
16    8     9     1
17    9     10    1
18    9     17    1
19    9     18    1
20    10    19    1
21    10    20    1
@<TRIPOS>SUBSTRUCTURE
1   LIG    1    
 
########## Number      : 471
########## Name        : ZINC00001906
########## Description : AM1BCC_CHARGES =   0.0000 ORIGINAL_CHARGES =   0.0000

@<TRIPOS>MOLECULE
ZINC00001906
22    22    1     0     0    
SMALL
USER_CHARGES
****
****
@<TRIPOS>ATOM
1     C1       4.3849  -10.5085   -0.3332 C.3     1  LIG  -0.1986   0.0610 
2     C2       4.5075   -9.1615   -0.9984 C.2     1  LIG   0.5882   0.4228 
3     O1       5.3169   -8.9671   -1.9008 O.2     1  LIG  -0.5146  -0.5700 
4     C3       3.6428   -8.0541   -0.5121 C.ar    1  LIG  -0.2332   0.0862 
5     C4       3.3361   -7.9644    0.8501 C.ar    1  LIG  -0.0305  -0.1500 
6     C5       2.5397   -6.9186    1.3300 C.ar    1  LIG  -0.2505  -0.1500 
7     C6       2.0440   -5.9515    0.4533 C.ar    1  LIG   0.1860   0.0825 
8     C7       2.3520   -6.0398   -0.9084 C.ar    1  LIG  -0.2635  -0.1500 
9     C8       3.1470   -7.0844   -1.3884 C.ar    1  LIG   0.2076   0.0825 
10    O2       3.4141   -7.1639   -2.7276 O.3     1  LIG  -0.4692  -0.5325 
11    O3       1.2579   -4.8844    0.7985 O.3     1  LIG  -0.3236  -0.3625 
12    C9       0.9190   -4.7550    2.1742 C.3     1  LIG   0.1125   0.2800 
13    H1       3.0036   -6.4072   -3.1792 H       1  LIG   0.4237   0.4500 
14    H2       4.6097  -11.2889   -1.0666 H       1  LIG   0.0687   0.0000 
15    H3       5.0919  -10.5755    0.4973 H       1  LIG   0.0606   0.0000 
16    H4       3.3657  -10.6804    0.0237 H       1  LIG   0.0564   0.0000 
17    H5       3.7193   -8.6903    1.5627 H       1  LIG   0.1374   0.1500 
18    H6       2.3304   -6.8882    2.3949 H       1  LIG   0.1426   0.1500 
19    H7       1.9633   -5.2891   -1.5929 H       1  LIG   0.1553   0.1500 
20    H8       0.2940   -3.8632    2.2815 H       1  LIG   0.0703   0.0000 
21    H9       0.3347   -5.6144    2.5194 H       1  LIG   0.0368   0.0000 
22    H10      1.8135   -4.6103    2.7891 H       1  LIG   0.0376   0.0000 
@<TRIPOS>BOND
1     1     2     1
2     1     14    1
3     1     15    1
4     1     16    1
5     2     3     2
6     2     4     1
7     4     9     ar
8     4     5     ar
9     5     6     ar
10    5     17    1
11    6     7     ar
12    6     18    1
13    7     8     ar
14    7     11    1
15    8     9     ar
16    8     19    1
17    9     10    1
18    10    13    1
19    11    12    1
20    12    20    1
21    12    21    1
22    12    22    1
@<TRIPOS>SUBSTRUCTURE
1   LIG    1    
 
########## Number      : 472
########## Name        : ZINC00001908
########## Description : AM1BCC_CHARGES =   1.9999 ORIGINAL_CHARGES =   2.0000

@<TRIPOS>MOLECULE
ZINC00001908
51    54    1     0     0    
SMALL
USER_CHARGES
****
****
@<TRIPOS>ATOM
1     C1       8.5199  -12.5608    0.4454 C.3     1  LIG   0.0815   0.5030 
2     C2       6.3933  -11.6088   -0.4491 C.3     1  LIG   0.0773   0.5030 
3     C3       5.7051  -10.3151   -0.8620 C.3     1  LIG   0.0772   0.5030 
4     C4       6.9965   -9.0708    0.8795 C.3     1  LIG   0.0763   0.5030 
5     C5       7.6853  -10.3658    1.2907 C.3     1  LIG   0.0764   0.5030 
6     C6       4.8382   -8.1166   -0.0421 C.3     1  LIG   0.1245   0.5030 
7     C7       4.3410   -7.4034    1.2125 C.3     1  LIG  -0.1779   0.0000 
8     C8       3.4623   -6.1991    0.8373 C.3     1  LIG   0.0644   0.3691 
9     N1       2.9813   -5.4773    2.0395 N.pl3   1  LIG  -0.1557  -0.5691 
10    C9       1.7344   -5.8932    2.5936 C.ar    1  LIG   0.0449   0.1000 
11    C10      1.0986   -7.0993    2.2136 C.ar    1  LIG  -0.1895  -0.1500 
12    C11     -0.1187   -7.5170    2.7631 C.ar    1  LIG  -0.1013  -0.1500 
13    C12     -0.7484   -6.7406    3.7194 C.ar    1  LIG  -0.1190  -0.1500 
14    C13     -0.1562   -5.5504    4.1213 C.ar    1  LIG  -0.0757  -0.1500 
15    C14      1.0710   -5.1265    3.5721 C.ar    1  LIG  -0.0182   0.1015 
16    S1       1.6759   -3.5680    4.1698 S.3     1  LIG  -0.0789  -0.2030 
17    C15      3.3191   -3.5091    3.5001 C.ar    1  LIG  -0.0179   0.1015 
18    C16      3.7941   -4.4114    2.5277 C.ar    1  LIG   0.0459   0.1000 
19    C17      5.1225   -4.2047    2.0852 C.ar    1  LIG  -0.1907  -0.1500 
20    C18      5.9274   -3.1677    2.5700 C.ar    1  LIG  -0.1034  -0.1500 
21    C19      5.4315   -2.2948    3.5218 C.ar    1  LIG  -0.1190  -0.1500 
22    C20      4.1329   -2.4647    3.9841 C.ar    1  LIG  -0.0762  -0.1500 
23    H1       9.5188  -12.2735    0.7835 H       1  LIG   0.1310   0.0000 
24    H2       7.9783  -13.0960    1.2300 H       1  LIG   0.1201   0.0000 
25    H3       8.5931  -13.1641   -0.4631 H       1  LIG   0.1307   0.0000 
26    H4       6.5315  -12.2630   -1.3161 H       1  LIG   0.1593   0.0000 
27    H5       5.8293  -12.1413    0.3251 H       1  LIG   0.1335   0.0000 
28    H6       6.2507   -9.7957   -1.6579 H       1  LIG   0.1328   0.0000 
29    H7       4.6821  -10.5217   -1.1929 H       1  LIG   0.1587   0.0000 
30    H8       7.5579   -8.5387    0.1034 H       1  LIG   0.1311   0.0000 
31    H9       6.8761   -8.4244    1.7522 H       1  LIG   0.1644   0.0000 
32    H10      7.1397  -10.8811    2.0893 H       1  LIG   0.1338   0.0000 
33    H11      8.7108  -10.1667    1.6182 H       1  LIG   0.1592   0.0000 
34    H12      5.4917   -7.4833   -0.6518 H       1  LIG   0.1115   0.0000 
35    H13      3.9828   -8.4375   -0.6470 H       1  LIG   0.1175   0.0000 
36    H14      3.7792   -8.1061    1.8379 H       1  LIG   0.0837   0.0000 
37    H15      5.1856   -7.0695    1.8222 H       1  LIG   0.0778   0.0000 
38    H16      4.0061   -5.5247    0.1634 H       1  LIG   0.0750   0.0000 
39    H17      2.6228   -6.5191    0.2068 H       1  LIG   0.0752   0.0000 
40    H18      1.5344   -7.7710    1.4804 H       1  LIG   0.0967   0.1500 
41    H19     -0.5668   -8.4524    2.4397 H       1  LIG   0.1396   0.1500 
42    H20     -1.6933   -7.0564    4.1504 H       1  LIG   0.1593   0.1500 
43    H21     -0.6661   -4.9492    4.8723 H       1  LIG   0.1644   0.1500 
44    H22      5.5901   -4.8540    1.3513 H       1  LIG   0.0960   0.1500 
45    H23      6.9421   -3.0508    2.1999 H       1  LIG   0.1382   0.1500 
46    H24      6.0484   -1.4869    3.9029 H       1  LIG   0.1588   0.1500 
47    H25      3.7565   -1.7673    4.7307 H       1  LIG   0.1646   0.1500 
48    N2       7.7628  -11.3038    0.1096 N.4     1  LIG  -0.6881  -0.9590 
49    H26      8.3041  -10.8323   -0.6291 H       1  LIG   0.4667   0.4500 
50    N3       5.6174   -9.3700    0.3229 N.4     1  LIG  -0.6976  -0.9590 
51    H27      5.0783   -9.8539    1.0552 H       1  LIG   0.4610   0.4500 
@<TRIPOS>BOND
1     1     23    1
2     1     24    1
3     1     25    1
4     1     48    1
5     2     3     1
6     2     26    1
7     2     27    1
8     2     48    1
9     3     28    1
10    3     29    1
11    3     50    1
12    4     5     1
13    4     30    1
14    4     31    1
15    4     50    1
16    5     32    1
17    5     33    1
18    5     48    1
19    6     7     1
20    6     34    1
21    6     35    1
22    6     50    1
23    7     8     1
24    7     36    1
25    7     37    1
26    8     9     1
27    8     38    1
28    8     39    1
29    9     18    1
30    9     10    1
31    10    15    ar
32    10    11    ar
33    11    12    ar
34    11    40    1
35    12    13    ar
36    12    41    1
37    13    14    ar
38    13    42    1
39    14    15    ar
40    14    43    1
41    15    16    1
42    16    17    1
43    17    22    ar
44    17    18    ar
45    18    19    ar
46    19    20    ar
47    19    44    1
48    20    21    ar
49    20    45    1
50    21    22    ar
51    21    46    1
52    22    47    1
53    48    49    1
54    50    51    1
@<TRIPOS>SUBSTRUCTURE
1   LIG    1    
 
########## Number      : 473
########## Name        : ZINC00001909
########## Description : AM1BCC_CHARGES =   1.0002 ORIGINAL_CHARGES =   1.0000

@<TRIPOS>MOLECULE
ZINC00001909
49    52    1     0     0    
SMALL
USER_CHARGES
****
****
@<TRIPOS>ATOM
1     C1      -0.3848   -3.1899   -0.4814 C.3     1  LIG  -0.1023   0.0000 
2     C2       0.4272   -1.9029   -0.4688 C.3     1  LIG  -0.1023   0.0000 
3     C3       0.9246   -1.5558   -1.8737 C.3     1  LIG   0.0998   0.5030 
4     C4       2.7308   -0.1105   -0.8796 C.3     1  LIG   0.1090   0.5030 
5     C5       3.7756    0.9315   -1.2474 C.3     1  LIG  -0.0615   0.0000 
6     C6       4.4971    0.4931   -2.5413 C.3     1  LIG  -0.0998   0.0000 
7     C7       3.5676   -0.2644   -3.5235 C.3     1  LIG  -0.0025   0.1435 
8     C8       2.0945    0.2351   -3.3074 C.3     1  LIG   0.1388   0.5030 
9     C9       1.0704   -0.2086   -4.4179 C.3     1  LIG   0.0070   0.1810 
10    C10      1.6208    0.0977   -5.7667 C.2     1  LIG  -0.2047  -0.1810 
11    C11      1.0579    0.3332   -6.9981 C.2     1  LIG  -0.0400  -0.3016 
12    N1       2.0880    0.4915   -7.9037 N.pl3   1  LIG  -0.1750   0.0332 
13    C12      3.3053    0.3478   -7.2728 C.ar    1  LIG  -0.0332  -0.1516 
14    C13      3.0176    0.1261   -5.9395 C.ar    1  LIG  -0.1035   0.0000 
15    C14      4.0060   -0.0491   -4.9637 C.ar    1  LIG  -0.0717  -0.1435 
16    C15      5.3307   -0.0460   -5.4246 C.ar    1  LIG  -0.1181  -0.1500 
17    C16      5.6270    0.1729   -6.7794 C.ar    1  LIG  -0.1087  -0.1500 
18    C17      4.6204    0.3853   -7.7350 C.ar    1  LIG  -0.1074  -0.1500 
19    C18      4.7702    1.0795   -0.0854 C.3     1  LIG  -0.0313   0.2300 
20    S1       5.9526    2.4420   -0.3571 S.3     1  LIG  -0.2616  -0.4600 
21    C19      6.9068    2.2821    1.1710 C.3     1  LIG  -0.0452   0.2300 
22    H1       1.9659    0.6657   -8.8917 H       1  LIG   0.3164   0.2700 
23    H2      -0.7291   -3.4306    0.5293 H       1  LIG   0.0729   0.0000 
24    H3      -1.2649   -3.0931   -1.1253 H       1  LIG   0.0519   0.0000 
25    H4       0.2171   -4.0289   -0.8448 H       1  LIG   0.0533   0.0000 
26    H5      -0.1953   -1.0897   -0.0775 H       1  LIG   0.0607   0.0000 
27    H6       1.2659   -2.0353    0.2226 H       1  LIG   0.0629   0.0000 
28    H7       1.6407   -2.2928   -2.2511 H       1  LIG   0.1051   0.0000 
29    H8       0.0513   -1.4955   -2.5282 H       1  LIG   0.1015   0.0000 
30    H9       2.2544    0.1326    0.0764 H       1  LIG   0.0944   0.0000 
31    H10      3.1854   -1.1065   -0.8106 H       1  LIG   0.1018   0.0000 
32    H11      3.2866    1.8979   -1.4617 H       1  LIG   0.0828   0.0000 
33    H12      4.9123    1.3912   -3.0176 H       1  LIG   0.0974   0.0000 
34    H13      5.3537   -0.1542   -2.3104 H       1  LIG   0.0772   0.0000 
35    H14      3.6599   -1.3412   -3.2973 H       1  LIG   0.0686   0.0000 
36    H15      2.0986    1.3422   -3.3744 H       1  LIG   0.1063   0.0000 
37    H16      0.9057   -1.2912   -4.4008 H       1  LIG   0.0624   0.0000 
38    H17      0.1098    0.2962   -4.2674 H       1  LIG   0.0559   0.0000 
39    H18      0.0290    0.3885   -7.3255 H       1  LIG   0.1805   0.1500 
40    H19      6.1524   -0.2076   -4.7310 H       1  LIG   0.1405   0.1500 
41    H20      6.6671    0.1794   -7.0989 H       1  LIG   0.1489   0.1500 
42    H21      4.8587    0.5554   -8.7786 H       1  LIG   0.1521   0.1500 
43    H22      4.2244    1.2983    0.8390 H       1  LIG   0.0669   0.0000 
44    H23      5.3293    0.1490    0.0643 H       1  LIG   0.0720   0.0000 
45    H24      7.6905    3.0442    1.1876 H       1  LIG   0.0981   0.0000 
46    H25      6.2608    2.4288    2.0404 H       1  LIG   0.0649   0.0000 
47    H26      7.3785    1.2975    1.2239 H       1  LIG   0.0649   0.0000 
48    N2       1.6026   -0.1786   -1.9005 N.4     1  LIG  -0.6839  -0.9590 
49    H27      0.8453    0.4659   -1.6082 H       1  LIG   0.4380   0.4500 
@<TRIPOS>BOND
1     1     2     1
2     1     23    1
3     1     24    1
4     1     25    1
5     2     3     1
6     2     26    1
7     2     27    1
8     3     28    1
9     3     29    1
10    3     48    1
11    4     5     1
12    4     30    1
13    4     31    1
14    4     48    1
15    5     6     1
16    5     19    1
17    5     32    1
18    6     7     1
19    6     33    1
20    6     34    1
21    7     15    1
22    7     8     1
23    7     35    1
24    8     9     1
25    8     36    1
26    8     48    1
27    9     10    1
28    9     37    1
29    9     38    1
30    10    14    1
31    10    11    2
32    11    12    1
33    11    39    1
34    12    13    1
35    12    22    1
36    13    18    ar
37    13    14    ar
38    14    15    ar
39    15    16    ar
40    16    17    ar
41    16    40    1
42    17    18    ar
43    17    41    1
44    18    42    1
45    19    20    1
46    19    43    1
47    19    44    1
48    20    21    1
49    21    45    1
50    21    46    1
51    21    47    1
52    48    49    1
@<TRIPOS>SUBSTRUCTURE
1   LIG    1    
 
########## Number      : 474
########## Name        : ZINC00001911
########## Description : AM1BCC_CHARGES =   1.0000 ORIGINAL_CHARGES =   1.0000

@<TRIPOS>MOLECULE
ZINC00001911
44    47    1     0     0    
SMALL
USER_CHARGES
****
****
@<TRIPOS>ATOM
1     C1       7.6999   -9.8218   -0.4265 C.3     1  LIG   0.0837   0.5030 
2     C2       5.4632   -9.2514    0.5367 C.3     1  LIG   0.0698   0.5030 
3     C3       4.6307   -9.3395    1.8117 C.3     1  LIG   0.1638   0.3691 
4     N1       5.3184   -8.6271    2.8973 N.pl3   1  LIG  -0.6822  -0.7882 
5     C4       6.6366   -9.1977    3.2087 C.3     1  LIG   0.1541   0.3691 
6     C5       7.5256   -9.1181    1.9671 C.3     1  LIG   0.0694   0.5030 
7     C6       4.9439   -7.3231    3.2622 C.2     1  LIG   0.6447   0.4138 
8     N2       4.2444   -6.5988    2.4226 N.2     1  LIG  -0.6427  -0.6290 
9     C7       3.8170   -5.2789    2.6413 C.ar    1  LIG   0.1341   0.1790 
10    C8       2.5176   -4.9435    2.2373 C.ar    1  LIG  -0.1023  -0.1500 
11    C9       2.0451   -3.6356    2.3514 C.ar    1  LIG  -0.1195  -0.1500 
12    C10      2.8726   -2.6403    2.8616 C.ar    1  LIG  -0.1106  -0.1500 
13    C11      4.1713   -2.9527    3.2593 C.ar    1  LIG  -0.1125  -0.1500 
14    C12      4.6527   -4.2662    3.1480 C.ar    1  LIG  -0.0900  -0.1435 
15    C13      6.0373   -4.6096    3.6317 C.3     1  LIG   0.0034   0.2870 
16    C14      5.9393   -5.5654    4.7898 C.ar    1  LIG  -0.0493  -0.1435 
17    C15      5.3644   -6.8348    4.6195 C.ar    1  LIG  -0.1923   0.0862 
18    C16      5.1895   -7.6838    5.7212 C.ar    1  LIG  -0.0873  -0.1500 
19    C17      5.6087   -7.2794    6.9877 C.ar    1  LIG  -0.1342  -0.1500 
20    C18      6.1973   -6.0289    7.1605 C.ar    1  LIG  -0.0933  -0.1500 
21    C19      6.3575   -5.1736    6.0694 C.ar    1  LIG  -0.1283  -0.1500 
22    H1       8.6504  -10.3016   -0.1793 H       1  LIG   0.1013   0.0000 
23    H2       7.1812  -10.3973   -1.1976 H       1  LIG   0.1036   0.0000 
24    H3       7.8537   -8.7876   -0.7455 H       1  LIG   0.1081   0.0000 
25    H4       5.5966   -8.2167    0.2019 H       1  LIG   0.1296   0.0000 
26    H5       5.0155   -9.8479   -0.2644 H       1  LIG   0.1019   0.0000 
27    H6       3.6265   -8.9368    1.6388 H       1  LIG   0.1272   0.0000 
28    H7       4.4945  -10.3889    2.1016 H       1  LIG   0.0727   0.0000 
29    H8       7.1368   -8.6771    4.0303 H       1  LIG   0.1210   0.0000 
30    H9       6.5143  -10.2414    3.5227 H       1  LIG   0.0806   0.0000 
31    H10      8.4814   -9.6231    2.1395 H       1  LIG   0.1042   0.0000 
32    H11      7.7025   -8.0808    1.6606 H       1  LIG   0.1119   0.0000 
33    H12      1.8646   -5.7082    1.8229 H       1  LIG   0.1430   0.1500 
34    H13      1.0339   -3.3944    2.0367 H       1  LIG   0.1476   0.1500 
35    H14      2.5067   -1.6215    2.9515 H       1  LIG   0.1485   0.1500 
36    H15      4.8035   -2.1663    3.6642 H       1  LIG   0.1432   0.1500 
37    H16      6.6254   -5.0541    2.8188 H       1  LIG   0.0436   0.0000 
38    H17      6.5781   -3.7018    3.9268 H       1  LIG   0.0723   0.0000 
39    H18      4.7291   -8.6615    5.6047 H       1  LIG   0.1489   0.1500 
40    H19      5.4758   -7.9394    7.8403 H       1  LIG   0.1497   0.1500 
41    H20      6.5216   -5.7136    8.1483 H       1  LIG   0.1504   0.1500 
42    H21      6.7983   -4.1925    6.2290 H       1  LIG   0.1472   0.1500 
43    N3       6.8441   -9.8219    0.8083 N.4     1  LIG  -0.6789  -0.9590 
44    H22      6.7193  -10.8068    1.0800 H       1  LIG   0.4439   0.4500 
@<TRIPOS>BOND
1     1     22    1
2     1     23    1
3     1     24    1
4     1     43    1
5     2     3     1
6     2     25    1
7     2     26    1
8     2     43    1
9     3     4     1
10    3     27    1
11    3     28    1
12    4     5     1
13    4     7     1
14    5     6     1
15    5     29    1
16    5     30    1
17    6     31    1
18    6     32    1
19    6     43    1
20    7     17    1
21    7     8     2
22    8     9     1
23    9     14    ar
24    9     10    ar
25    10    11    ar
26    10    33    1
27    11    12    ar
28    11    34    1
29    12    13    ar
30    12    35    1
31    13    14    ar
32    13    36    1
33    14    15    1
34    15    16    1
35    15    37    1
36    15    38    1
37    16    21    ar
38    16    17    ar
39    17    18    ar
40    18    19    ar
41    18    39    1
42    19    20    ar
43    19    40    1
44    20    21    ar
45    20    41    1
46    21    42    1
47    43    44    1
@<TRIPOS>SUBSTRUCTURE
1   LIG    1    
 
########## Number      : 475
########## Name        : ZINC00001916
########## Description : AM1BCC_CHARGES =  -0.0001 ORIGINAL_CHARGES =  -0.0000

@<TRIPOS>MOLECULE
ZINC00001916
23    23    1     0     0    
SMALL
USER_CHARGES
****
****
@<TRIPOS>ATOM
1     C1       6.8537   -2.1102    5.1525 C.ar    1  LIG  -0.1206  -0.1500 
2     C2       5.4733   -1.9869    5.0049 C.ar    1  LIG  -0.1277  -0.1500 
3     C3       4.8197   -2.6451    3.9619 C.ar    1  LIG  -0.1095  -0.1500 
4     C4       5.5439   -3.4286    3.0529 C.ar    1  LIG  -0.0799  -0.1435 
5     C5       6.9304   -3.5532    3.2153 C.ar    1  LIG  -0.1110  -0.1500 
6     C6       7.5817   -2.8940    4.2591 C.ar    1  LIG  -0.1277  -0.1500 
7     C7       4.8371   -4.1554    1.9390 C.3     1  LIG  -0.1067   0.2045 
8     C8       4.3730   -5.5497    2.3210 C.2     1  LIG   0.6674   0.5690 
9     O1       4.5517   -6.0427    3.4308 O.2     1  LIG  -0.5036  -0.5700 
10    N1       3.7279   -6.1784    1.2546 N.am    1  LIG  -0.6207  -0.4900 
11    C9       3.1877   -7.4620    1.2851 C.2     1  LIG   0.7544   0.6900 
12    O2       3.2001   -8.2233    2.2487 O.2     1  LIG  -0.5742  -0.5700 
13    N2       2.6144   -7.8082    0.0780 N.am    1  LIG  -0.6564  -0.8000 
14    H1       3.6400   -5.6681    0.3824 H       1  LIG   0.3099   0.3700 
15    H2       2.1825   -8.7181   -0.0393 H       1  LIG   0.3161   0.3700 
16    H3       2.6023   -7.1831   -0.7189 H       1  LIG   0.2891   0.3700 
17    H4       7.3612   -1.5989    5.9652 H       1  LIG   0.1328   0.1500 
18    H5       4.9047   -1.3803    5.7040 H       1  LIG   0.1333   0.1500 
19    H6       3.7416   -2.5445    3.8642 H       1  LIG   0.1315   0.1500 
20    H7       7.5113   -4.1662    2.5307 H       1  LIG   0.1315   0.1500 
21    H8       8.6569   -2.9946    4.3768 H       1  LIG   0.1335   0.1500 
22    H9       3.9660   -3.5727    1.6137 H       1  LIG   0.0695   0.0000 
23    H10      5.5025   -4.2330    1.0699 H       1  LIG   0.0689   0.0000 
@<TRIPOS>BOND
1     1     6     ar
2     1     2     ar
3     1     17    1
4     2     3     ar
5     2     18    1
6     3     4     ar
7     3     19    1
8     4     5     ar
9     4     7     1
10    5     6     ar
11    5     20    1
12    6     21    1
13    7     8     1
14    7     22    1
15    7     23    1
16    8     9     2
17    8     10    am
18    10    11    am
19    10    14    1
20    11    12    2
21    11    13    am
22    13    15    1
23    13    16    1
@<TRIPOS>SUBSTRUCTURE
1   LIG    1    
 
########## Number      : 476
########## Name        : ZINC00001923
########## Description : AM1BCC_CHARGES =   2.0000 ORIGINAL_CHARGES =   1.6665

@<TRIPOS>MOLECULE
ZINC00001923
32    32    1     0     0    
SMALL
USER_CHARGES
****
****
@<TRIPOS>ATOM
1     C1       3.2418   -9.8681    0.0110 C.ar    1  LIG  -0.0887  -0.1500 
2     C2       4.1895   -9.0473    0.6195 C.ar    1  LIG  -0.1146  -0.1500 
3     C3       4.2876   -7.7033    0.2559 C.ar    1  LIG  -0.1178  -0.1500 
4     C4       3.4399   -7.1697   -0.7243 C.ar    1  LIG  -0.1490  -0.1435 
5     C5       2.4863   -8.0020   -1.3259 C.ar    1  LIG  -0.1175  -0.1500 
6     C6       2.3901   -9.3458   -0.9606 C.ar    1  LIG  -0.1154  -0.1500 
7     C7       3.5312   -5.7154   -1.1030 C.3     1  LIG  -0.0331   0.1435 
8     C8       2.6256   -4.8459   -0.2331 C.3     1  LIG  -0.0083   0.3276 
9     N1       2.7316   -3.4284   -0.6227 N.pl3   1  LIG  -0.2990  -0.8443 
10    C9       1.9306   -2.4284   -0.0758 C.cat   1  LIG   0.5045   1.2000 
11    N2       2.1199   -1.1348   -0.5327 N.pl3   1  LIG  -0.4865  -0.9667 
12    N3       1.0140   -2.7299    0.9215 N.pl3   1  LIG  -0.5079  -0.9167 
13    C10     -0.0437   -1.9405    1.3333 C.cat   1  LIG   0.5415   1.2000 
14    N4      -0.6644   -2.2403    2.5319 N.pl3   1  LIG  -0.4414  -0.9667 
15    N5      -0.5392   -0.8938    0.5831 N.pl3   1  LIG  -0.4667  -0.9667 
16    H1       3.4014   -3.1579   -1.3392 H       1  LIG   0.3521   0.4500 
17    H2       1.7050   -0.3304   -0.0731 H       1  LIG   0.3355   0.4500 
18    H3       2.7812   -0.9381   -1.2799 H       1  LIG   0.3507   0.4500 
19    H4       1.1277   -3.6177    1.4038 H       1  LIG   0.3703   0.4500 
20    H5      -1.4574   -1.6988    2.8651 H       1  LIG   0.3609   0.4500 
21    H6      -0.3444   -3.0060    3.1184 H       1  LIG   0.3538   0.4500 
22    H7      -1.3066   -0.3245    0.9312 H       1  LIG   0.3580   0.4500 
23    H8      -0.2462   -0.7233   -0.3737 H       1  LIG   0.3450   0.4500 
24    H9       3.1663  -10.9139    0.2946 H       1  LIG   0.1629   0.1500 
25    H10      4.8523   -9.4537    1.3783 H       1  LIG   0.1587   0.1500 
26    H11      5.0301   -7.0754    0.7422 H       1  LIG   0.1317   0.1500 
27    H12      1.8125   -7.6092   -2.0832 H       1  LIG   0.1311   0.1500 
28    H13      1.6500   -9.9849   -1.4337 H       1  LIG   0.1581   0.1500 
29    H14      4.5709   -5.3740   -1.0193 H       1  LIG   0.0771   0.0000 
30    H15      3.2674   -5.5891   -2.1608 H       1  LIG   0.0801   0.0000 
31    H16      1.5815   -5.1566   -0.3501 H       1  LIG   0.0903   0.0000 
32    H17      2.9193   -4.9308    0.8188 H       1  LIG   0.0836   0.0000 
@<TRIPOS>BOND
1     1     6     ar
2     1     2     ar
3     1     24    1
4     2     3     ar
5     2     25    1
6     3     4     ar
7     3     26    1
8     4     5     ar
9     4     7     1
10    5     6     ar
11    5     27    1
12    6     28    1
13    7     8     1
14    7     29    1
15    7     30    1
16    8     9     1
17    8     31    1
18    8     32    1
19    9     10    2
20    9     16    1
21    10    11    1
22    10    12    1
23    11    17    1
24    11    18    1
25    12    13    1
26    12    19    1
27    13    14    1
28    13    15    2
29    14    20    1
30    14    21    1
31    15    22    1
32    15    23    1
@<TRIPOS>SUBSTRUCTURE
1   LIG    1    
 
########## Number      : 477
########## Name        : ZINC00001924
########## Description : AM1BCC_CHARGES =   0.0002 ORIGINAL_CHARGES =   0.0000

@<TRIPOS>MOLECULE
ZINC00001924
20    20    1     0     0    
SMALL
USER_CHARGES
****
****
@<TRIPOS>ATOM
1     C1       5.5907   -9.2622   -0.2615 C.ar    1  LIG  -0.1486  -0.1500 
2     C2       5.8558   -9.0632   -1.6128 C.ar    1  LIG  -0.1048  -0.1500 
3     C3       5.0541   -8.1983   -2.3622 C.ar    1  LIG  -0.1463  -0.1500 
4     C4       3.9794   -7.5089   -1.7757 C.ar    1  LIG   0.0627   0.1000 
5     C5       3.7215   -7.7344   -0.4143 C.ar    1  LIG  -0.1650  -0.1500 
6     C6       4.5231   -8.5994    0.3372 C.ar    1  LIG  -0.1035  -0.1500 
7     N1       3.1943   -6.6791   -2.5857 N.pl3   1  LIG  -0.4436  -0.5200 
8     N2       2.1900   -5.9425   -2.0198 N.am    1  LIG  -0.3456  -0.4100 
9     C7       2.3009   -4.5644   -2.0140 C.2     1  LIG   0.6751   0.6900 
10    O1       3.2462   -3.9249   -2.4711 O.2     1  LIG  -0.6197  -0.5700 
11    N3       1.2125   -3.9571   -1.4245 N.am    1  LIG  -0.6392  -0.8000 
12    H1       3.4928   -6.4371   -3.5227 H       1  LIG   0.4102   0.4000 
13    H2       1.3757   -6.4495   -1.6936 H       1  LIG   0.2927   0.3700 
14    H3       1.1641   -2.9471   -1.3523 H       1  LIG   0.3137   0.3700 
15    H4       0.4392   -4.4912   -1.0465 H       1  LIG   0.2975   0.3700 
16    H5       6.2120   -9.9343    0.3230 H       1  LIG   0.1341   0.1500 
17    H6       6.6844   -9.5815   -2.0867 H       1  LIG   0.1341   0.1500 
18    H7       5.2776   -8.0631   -3.4184 H       1  LIG   0.1384   0.1500 
19    H8       2.8951   -7.2388    0.0885 H       1  LIG   0.1255   0.1500 
20    H9       4.3099   -8.7555    1.3910 H       1  LIG   0.1325   0.1500 
@<TRIPOS>BOND
1     1     6     ar
2     1     2     ar
3     1     16    1
4     2     3     ar
5     2     17    1
6     3     4     ar
7     3     18    1
8     4     5     ar
9     4     7     1
10    5     6     ar
11    5     19    1
12    6     20    1
13    7     8     1
14    7     12    1
15    8     9     am
16    8     13    1
17    9     10    2
18    9     11    am
19    11    14    1
20    11    15    1
@<TRIPOS>SUBSTRUCTURE
1   LIG    1    
 
########## Number      : 478
########## Name        : ZINC00001925
########## Description : AM1BCC_CHARGES =  -0.0001 ORIGINAL_CHARGES =  -0.0000

@<TRIPOS>MOLECULE
ZINC00001925
27    29    1     0     0    
SMALL
USER_CHARGES
****
****
@<TRIPOS>ATOM
1     C1      -4.3359    1.2315   -5.2464 C.ar    1  LIG  -0.1283  -0.1500 
2     C2      -3.6807    0.5406   -4.2296 C.ar    1  LIG  -0.1273  -0.1500 
3     C3      -3.0779    1.2412   -3.1824 C.ar    1  LIG  -0.1466  -0.1500 
4     C4      -3.1290    2.6418   -3.1397 C.ar    1  LIG  -0.0232   0.0284 
5     C5      -3.7839    3.3259   -4.1729 C.ar    1  LIG  -0.1032  -0.1500 
6     C6      -4.3863    2.6234   -5.2190 C.ar    1  LIG  -0.1259  -0.1500 
7     C7      -2.4933    3.3835   -2.0526 C.2     1  LIG  -0.2655  -0.0140 
8     C8      -1.5666    4.5418   -2.2351 C.2     1  LIG   0.6054   0.4694 
9     O1      -1.1925    5.0277   -3.2829 O.2     1  LIG  -0.4998  -0.5700 
10    C9      -1.1736    4.9889   -0.9022 C.ar    1  LIG  -0.1663   0.0862 
11    C10     -0.3309    6.0186   -0.5312 C.ar    1  LIG  -0.0643  -0.1500 
12    C11     -0.1371    6.2181    0.8359 C.ar    1  LIG  -0.1275  -0.1500 
13    C12     -0.7810    5.3959    1.7791 C.ar    1  LIG  -0.1171  -0.1500 
14    C13     -1.6294    4.3604    1.3698 C.ar    1  LIG  -0.0844  -0.1500 
15    C14     -1.8173    4.1666    0.0126 C.ar    1  LIG  -0.0643   0.0284 
16    C15     -2.6169    3.2054   -0.7226 C.2     1  LIG   0.2061   0.0483 
17    O2      -3.3775    2.3072   -0.0372 O.3     1  LIG  -0.4683  -0.5267 
18    H1      -4.8036    0.6862   -6.0610 H       1  LIG   0.1324   0.1500 
19    H2      -3.6347   -0.5445   -4.2531 H       1  LIG   0.1318   0.1500 
20    H3      -2.5599    0.6790   -2.4085 H       1  LIG   0.1278   0.1500 
21    H4      -3.8385    4.4124   -4.1730 H       1  LIG   0.1477   0.1500 
22    H5      -4.8941    3.1640   -6.0128 H       1  LIG   0.1346   0.1500 
23    H6      -3.9032    1.7997   -0.6782 H       1  LIG   0.4418   0.4500 
24    H7       0.1607    6.6469   -1.2648 H       1  LIG   0.1541   0.1500 
25    H8       0.5170    7.0158    1.1782 H       1  LIG   0.1394   0.1500 
26    H9      -0.6166    5.5686    2.8398 H       1  LIG   0.1389   0.1500 
27    H10     -2.1223    3.7318    2.1042 H       1  LIG   0.1519   0.1500 
@<TRIPOS>BOND
1     1     6     ar
2     1     2     ar
3     1     18    1
4     2     3     ar
5     2     19    1
6     3     4     ar
7     3     20    1
8     4     5     ar
9     4     7     1
10    5     6     ar
11    5     21    1
12    6     22    1
13    7     16    2
14    7     8     1
15    8     10    1
16    8     9     2
17    10    15    ar
18    10    11    ar
19    11    12    ar
20    11    24    1
21    12    13    ar
22    12    25    1
23    13    14    ar
24    13    26    1
25    14    15    ar
26    14    27    1
27    15    16    1
28    16    17    1
29    17    23    1
@<TRIPOS>SUBSTRUCTURE
1   LIG    1    
 
########## Number      : 479
########## Name        : ZINC00001927
########## Description : AM1BCC_CHARGES =   0.0001 ORIGINAL_CHARGES =  -0.0000

@<TRIPOS>MOLECULE
ZINC00001927
23    23    1     0     0    
SMALL
USER_CHARGES
****
****
@<TRIPOS>ATOM
1     C1       4.2267   -9.9399   -1.3914 C.ar    1  LIG  -0.1207  -0.1500 
2     C2       4.9533   -9.1478   -0.5045 C.ar    1  LIG  -0.1229  -0.1500 
3     C3       4.3004   -8.1943    0.2782 C.ar    1  LIG  -0.0931  -0.1500 
4     C4       2.9125   -8.0256    0.1810 C.ar    1  LIG  -0.0809  -0.1435 
5     C5       2.1916   -8.8255   -0.7165 C.ar    1  LIG  -0.1255  -0.1500 
6     C6       2.8466   -9.7788   -1.4977 C.ar    1  LIG  -0.1299  -0.1500 
7     C7       2.2050   -6.9855    1.0172 C.3     1  LIG  -0.0308   0.1435 
8     C8       1.8924   -5.6947    0.2393 C.3     1  LIG  -0.0718   0.3970 
9     C9       3.2050   -4.9448   -0.0589 C.2     1  LIG   0.9320   0.9060 
10    O1       3.7925   -4.4681    0.9538 O.co2   1  LIG  -0.8085  -0.9000 
11    H1       0.7189   -3.9995    0.5737 H       1  LIG   0.4358   0.4500 
12    H2       0.1163   -5.3556    1.3184 H       1  LIG   0.4121   0.4500 
13    H3       4.7361  -10.6808   -2.0008 H       1  LIG   0.1313   0.1500 
14    H4       6.0296   -9.2703   -0.4236 H       1  LIG   0.1359   0.1500 
15    H5       4.8833   -7.5806    0.9609 H       1  LIG   0.1471   0.1500 
16    H6       1.1148   -8.7106   -0.8128 H       1  LIG   0.1175   0.1500 
17    H7       2.2801  -10.3946   -2.1905 H       1  LIG   0.1293   0.1500 
18    H8       1.2732   -7.4319    1.3909 H       1  LIG   0.0238   0.0000 
19    H9       2.8024   -6.7687    1.9128 H       1  LIG   0.0747   0.0000 
20    H10      1.3782   -5.9562   -0.7009 H       1  LIG   0.0963   0.0000 
21    O2       3.5121   -4.8758   -1.2814 O.co2   1  LIG  -0.7001  -0.9000 
22    N1       0.9823   -4.8599    1.0721 N.4     1  LIG  -0.8318  -0.8530 
23    H11      1.4487   -4.5726    1.9441 H       1  LIG   0.4803   0.4500 
@<TRIPOS>BOND
1     1     6     ar
2     1     2     ar
3     1     13    1
4     2     3     ar
5     2     14    1
6     3     4     ar
7     3     15    1
8     4     5     ar
9     4     7     1
10    5     6     ar
11    5     16    1
12    6     17    1
13    7     8     1
14    7     18    1
15    7     19    1
16    8     9     1
17    8     20    1
18    8     22    1
19    9     10    2
20    9     21    1
21    11    22    1
22    12    22    1
23    22    23    1
@<TRIPOS>SUBSTRUCTURE
1   LIG    1    
 
########## Number      : 480
########## Name        : ZINC00001930
########## Description : AM1BCC_CHARGES =   1.0000 ORIGINAL_CHARGES =   1.0000

@<TRIPOS>MOLECULE
ZINC00001930
25    25    1     0     0    
SMALL
USER_CHARGES
****
****
@<TRIPOS>ATOM
1     C1       3.4192   -3.6240   -2.7404 C.3     1  LIG  -0.1347   0.0000 
2     C2       3.8276   -4.8150   -1.8695 C.3     1  LIG   0.1076   0.5030 
3     C3       3.3214   -6.1536   -2.4615 C.3     1  LIG   0.1945   0.4235 
4     C4       3.7185   -7.3481   -1.6104 C.ar    1  LIG  -0.2120  -0.1435 
5     C5       5.0650   -7.7134   -1.4541 C.ar    1  LIG  -0.1028  -0.1500 
6     C6       5.4180   -8.8047   -0.6585 C.ar    1  LIG  -0.1191  -0.1500 
7     C7       4.4313   -9.5447   -0.0110 C.ar    1  LIG  -0.0944  -0.1500 
8     C8       3.0908   -9.1959   -0.1600 C.ar    1  LIG  -0.1211  -0.1500 
9     C9       2.7351   -8.1049   -0.9554 C.ar    1  LIG  -0.1495  -0.1500 
10    O1       3.8786   -6.3373   -3.7546 O.3     1  LIG  -0.5817  -0.6800 
11    H1       3.3571   -5.8100   -4.3835 H       1  LIG   0.4426   0.4000 
12    H2       3.5583   -5.3550    0.1352 H       1  LIG   0.4742   0.4500 
13    H3       3.5505   -3.7231   -0.1103 H       1  LIG   0.4574   0.4500 
14    H4       3.8851   -3.6791   -3.7294 H       1  LIG   0.1133   0.0000 
15    H5       2.3331   -3.5844   -2.8778 H       1  LIG   0.0641   0.0000 
16    H6       3.7360   -2.6804   -2.2824 H       1  LIG   0.0705   0.0000 
17    H7       4.9284   -4.8086   -1.8158 H       1  LIG   0.1310   0.0000 
18    H8       2.2204   -6.1335   -2.5228 H       1  LIG   0.0703   0.0000 
19    H9       5.8500   -7.1527   -1.9561 H       1  LIG   0.1615   0.1500 
20    H10      6.4632   -9.0788   -0.5465 H       1  LIG   0.1616   0.1500 
21    H11      4.7066  -10.3947    0.6068 H       1  LIG   0.1610   0.1500 
22    H12      2.3208   -9.7750    0.3421 H       1  LIG   0.1582   0.1500 
23    H13      1.6825   -7.8524   -1.0583 H       1  LIG   0.1352   0.1500 
24    N1       3.2531   -4.6200   -0.5177 N.4     1  LIG  -0.8388  -0.8530 
25    H14      2.2242   -4.6251   -0.5281 H       1  LIG   0.4511   0.4500 
@<TRIPOS>BOND
1     1     2     1
2     1     14    1
3     1     15    1
4     1     16    1
5     2     3     1
6     2     17    1
7     2     24    1
8     3     4     1
9     3     10    1
10    3     18    1
11    4     9     ar
12    4     5     ar
13    5     6     ar
14    5     19    1
15    6     7     ar
16    6     20    1
17    7     8     ar
18    7     21    1
19    8     9     ar
20    8     22    1
21    9     23    1
22    10    11    1
23    12    24    1
24    13    24    1
25    24    25    1
@<TRIPOS>SUBSTRUCTURE
1   LIG    1    
 
########## Number      : 481
########## Name        : ZINC00001931
########## Description : AM1BCC_CHARGES =   1.0002 ORIGINAL_CHARGES =   1.0000

@<TRIPOS>MOLECULE
ZINC00001931
41    42    1     0     0    
SMALL
USER_CHARGES
****
****
@<TRIPOS>ATOM
1     C1       6.8549   -9.9419    0.7069 C.3     1  LIG   0.0835   0.5030 
2     C2       4.5514  -10.1919   -0.1799 C.3     1  LIG   0.0800   0.5030 
3     C3       5.1505   -8.2161    1.2720 C.3     1  LIG   0.0848   0.5030 
4     C4       4.1433   -7.2340    0.6834 C.3     1  LIG   0.1166   0.2800 
5     O1       3.8931   -6.2372    1.6761 O.3     1  LIG  -0.3248  -0.3625 
6     C5       3.1143   -5.1664    1.3188 C.ar    1  LIG   0.0919   0.0825 
7     C6       2.3998   -5.0735    0.1180 C.ar    1  LIG  -0.1863  -0.1500 
8     C7       1.6255   -3.9453   -0.1594 C.ar    1  LIG  -0.0956  -0.1500 
9     C8       1.5551   -2.9025    0.7580 C.ar    1  LIG  -0.1287  -0.1500 
10    C9       2.2580   -2.9861    1.9580 C.ar    1  LIG  -0.0980  -0.1500 
11    C10      3.0407   -4.1148    2.2553 C.ar    1  LIG  -0.0703  -0.1435 
12    C11      3.8000   -4.1561    3.5659 C.3     1  LIG   0.0088   0.2870 
13    C12      5.2740   -3.8549    3.4301 C.ar    1  LIG  -0.0760  -0.1435 
14    C13      6.2262   -4.8707    3.5951 C.ar    1  LIG  -0.1403  -0.1500 
15    C14      7.5880   -4.5950    3.4616 C.ar    1  LIG  -0.1385  -0.1500 
16    C15      8.0125   -3.3016    3.1646 C.ar    1  LIG  -0.1237  -0.1500 
17    C16      7.0761   -2.2825    3.0023 C.ar    1  LIG  -0.1177  -0.1500 
18    C17      5.7138   -2.5564    3.1350 C.ar    1  LIG  -0.1189  -0.1500 
19    H1       7.6281   -9.1971    0.9131 H       1  LIG   0.1089   0.0000 
20    H2       6.6055  -10.5103    1.6069 H       1  LIG   0.1089   0.0000 
21    H3       7.1858  -10.6038   -0.0977 H       1  LIG   0.1063   0.0000 
22    H4       3.7410   -9.6362   -0.6559 H       1  LIG   0.1068   0.0000 
23    H5       4.9888  -10.8838   -0.9049 H       1  LIG   0.1055   0.0000 
24    H6       4.1989  -10.7266    0.7060 H       1  LIG   0.1096   0.0000 
25    H7       4.7346   -8.7674    2.1232 H       1  LIG   0.1200   0.0000 
26    H8       6.0343   -7.6707    1.6236 H       1  LIG   0.1232   0.0000 
27    H9       4.5641   -6.7722   -0.2180 H       1  LIG   0.0638   0.0000 
28    H10      3.2075   -7.7497    0.4438 H       1  LIG   0.0543   0.0000 
29    H11      2.4191   -5.8647   -0.6248 H       1  LIG   0.1267   0.1500 
30    H12      1.0754   -3.8825   -1.0942 H       1  LIG   0.1470   0.1500 
31    H13      0.9531   -2.0250    0.5402 H       1  LIG   0.1513   0.1500 
32    H14      2.1931   -2.1609    2.6635 H       1  LIG   0.1493   0.1500 
33    H15      3.3642   -3.4421    4.2780 H       1  LIG   0.0712   0.0000 
34    H16      3.6486   -5.1366    4.0364 H       1  LIG   0.0617   0.0000 
35    H17      5.9131   -5.8852    3.8284 H       1  LIG   0.1153   0.1500 
36    H18      8.3176   -5.3893    3.5908 H       1  LIG   0.1259   0.1500 
37    H19      9.0723   -3.0872    3.0616 H       1  LIG   0.1401   0.1500 
38    H20      7.4062   -1.2734    2.7726 H       1  LIG   0.1430   0.1500 
39    H21      4.9978   -1.7485    3.0070 H       1  LIG   0.1379   0.1500 
40    N1       5.6189   -9.2171    0.2395 N.4     1  LIG  -0.6750  -0.9590 
41    H22      5.8956   -8.6899   -0.5999 H       1  LIG   0.4517   0.4500 
@<TRIPOS>BOND
1     1     19    1
2     1     20    1
3     1     21    1
4     1     40    1
5     2     22    1
6     2     23    1
7     2     24    1
8     2     40    1
9     3     4     1
10    3     25    1
11    3     26    1
12    3     40    1
13    4     5     1
14    4     27    1
15    4     28    1
16    5     6     1
17    6     11    ar
18    6     7     ar
19    7     8     ar
20    7     29    1
21    8     9     ar
22    8     30    1
23    9     10    ar
24    9     31    1
25    10    11    ar
26    10    32    1
27    11    12    1
28    12    13    1
29    12    33    1
30    12    34    1
31    13    18    ar
32    13    14    ar
33    14    15    ar
34    14    35    1
35    15    16    ar
36    15    36    1
37    16    17    ar
38    16    37    1
39    17    18    ar
40    17    38    1
41    18    39    1
42    40    41    1
@<TRIPOS>SUBSTRUCTURE
1   LIG    1    
 
########## Number      : 482
########## Name        : ZINC00001932
########## Description : AM1BCC_CHARGES =   0.0000 ORIGINAL_CHARGES =   0.0000

@<TRIPOS>MOLECULE
ZINC00001932
25    27    1     0     0    
SMALL
USER_CHARGES
****
****
@<TRIPOS>ATOM
1     C1       4.5475   -8.9593   -0.3070 C.ar    1  LIG  -0.1153  -0.1500 
2     C2       4.2461   -8.2340   -1.4565 C.ar    1  LIG  -0.1336  -0.1500 
3     C3       3.5263   -7.0384   -1.3666 C.ar    1  LIG  -0.1193  -0.1500 
4     C4       3.0974   -6.5512   -0.1225 C.ar    1  LIG  -0.1104   0.0530 
5     C5       3.4105   -7.2959    1.0264 C.ar    1  LIG  -0.0841  -0.1500 
6     C6       4.1298   -8.4904    0.9349 C.ar    1  LIG  -0.1353  -0.1500 
7     C7       2.3401   -5.3008    0.0120 C.2     1  LIG   0.4701   0.1335 
8     N1       1.9774   -4.4900   -1.0442 N.pl3   1  LIG  -0.2789   0.0332 
9     C8       1.2834   -3.4128   -0.5573 C.ar    1  LIG  -0.0709  -0.1516 
10    C9       0.6997   -2.3110   -1.1836 C.ar    1  LIG  -0.1362  -0.1500 
11    C10      0.0570   -1.3850   -0.3547 C.ar    1  LIG  -0.1119  -0.1500 
12    C11      0.0075   -1.5635    1.0299 C.ar    1  LIG  -0.1536  -0.1500 
13    C12      0.6017   -2.6787    1.6338 C.ar    1  LIG  -0.0688  -0.1500 
14    C13      1.2506   -3.6170    0.8148 C.ar    1  LIG   0.0688   0.2272 
15    N2       1.9031   -4.7791    1.1472 N.2     1  LIG  -0.5645  -0.5653 
16    H1       2.1842   -4.6539   -2.0192 H       1  LIG   0.3047   0.2700 
17    H2       5.1066   -9.8876   -0.3792 H       1  LIG   0.1353   0.1500 
18    H3       4.5710   -8.5979   -2.4274 H       1  LIG   0.1346   0.1500 
19    H4       3.3134   -6.5053   -2.2890 H       1  LIG   0.1231   0.1500 
20    H5       3.0973   -6.9544    2.0110 H       1  LIG   0.1619   0.1500 
21    H6       4.3626   -9.0527    1.8348 H       1  LIG   0.1381   0.1500 
22    H7       0.7393   -2.1745   -2.2583 H       1  LIG   0.1344   0.1500 
23    H8      -0.4127   -0.5099   -0.7976 H       1  LIG   0.1316   0.1500 
24    H9      -0.4990   -0.8270    1.6486 H       1  LIG   0.1327   0.1500 
25    H10      0.5604   -2.8125    2.7097 H       1  LIG   0.1475   0.1500 
@<TRIPOS>BOND
1     1     6     ar
2     1     2     ar
3     1     17    1
4     2     3     ar
5     2     18    1
6     3     4     ar
7     3     19    1
8     4     5     ar
9     4     7     1
10    5     6     ar
11    5     20    1
12    6     21    1
13    7     15    2
14    7     8     1
15    8     9     1
16    8     16    1
17    9     14    ar
18    9     10    ar
19    10    11    ar
20    10    22    1
21    11    12    ar
22    11    23    1
23    12    13    ar
24    12    24    1
25    13    14    ar
26    13    25    1
27    14    15    1
@<TRIPOS>SUBSTRUCTURE
1   LIG    1    
 
########## Number      : 483
########## Name        : ZINC00001935
########## Description : AM1BCC_CHARGES =  -0.0001 ORIGINAL_CHARGES =  -0.0000

@<TRIPOS>MOLECULE
ZINC00001935
44    44    1     0     0    
SMALL
USER_CHARGES
****
****
@<TRIPOS>ATOM
1     C1       9.1160   -3.3221    3.3675 C.3     1  LIG  -0.1191   0.0000 
2     C2       8.0595   -3.1527    4.4473 C.3     1  LIG   0.0899   0.3001 
3     N1       6.7056   -3.0174    3.8989 N.am    1  LIG  -0.4533  -0.6602 
4     C3       6.2307   -1.6532    3.6109 C.3     1  LIG   0.0921   0.3001 
5     C4       6.4274   -1.2306    2.1645 C.3     1  LIG  -0.1315   0.0000 
6     C5       5.9969   -4.1985    3.6256 C.2     1  LIG   0.6702   0.5438 
7     O1       6.4298   -5.3336    3.8238 O.2     1  LIG  -0.6039  -0.5700 
8     C6       4.6425   -4.1057    3.0494 C.ar    1  LIG  -0.0906   0.0862 
9     C7       3.5947   -3.6468    3.8539 C.ar    1  LIG  -0.1102  -0.1500 
10    C8       2.3051   -3.5583    3.3287 C.ar    1  LIG  -0.1223  -0.1500 
11    C9       2.0573   -3.9356    2.0082 C.ar    1  LIG  -0.1218  -0.1500 
12    C10      3.0925   -4.4282    1.2128 C.ar    1  LIG  -0.1108  -0.1500 
13    C11      4.3792   -4.5529    1.7461 C.ar    1  LIG  -0.0907   0.0862 
14    C12      5.4611   -5.0691    0.8869 C.2     1  LIG   0.6695   0.5438 
15    O2       6.3174   -4.2562    0.5388 O.2     1  LIG  -0.6046  -0.5700 
16    N2       5.4619   -6.4276    0.5311 N.am    1  LIG  -0.4544  -0.6602 
17    C13      6.5689   -6.9074   -0.3032 C.3     1  LIG   0.0913   0.3001 
18    C14      7.7881   -7.3069    0.5122 C.3     1  LIG  -0.1190   0.0000 
19    C15      4.4824   -7.4282    0.9881 C.3     1  LIG   0.0935   0.3001 
20    C16      4.7673   -7.9711    2.3785 C.3     1  LIG  -0.1321   0.0000 
21    H1      10.0940   -3.5077    3.8225 H       1  LIG   0.0389   0.0000 
22    H2       8.8801   -4.1634    2.7079 H       1  LIG   0.0574   0.0000 
23    H3       9.2013   -2.4241    2.7501 H       1  LIG   0.0374   0.0000 
24    H4       8.0846   -4.0329    5.1004 H       1  LIG   0.0705   0.0000 
25    H5       8.2859   -2.2861    5.0774 H       1  LIG   0.0418   0.0000 
26    H6       5.1706   -1.5750    3.8608 H       1  LIG   0.0464   0.0000 
27    H7       6.7517   -0.9537    4.2740 H       1  LIG   0.0466   0.0000 
28    H8       6.1002   -0.1946    2.0301 H       1  LIG   0.0374   0.0000 
29    H9       7.4756   -1.2932    1.8628 H       1  LIG   0.0419   0.0000 
30    H10      5.8429   -1.8519    1.4823 H       1  LIG   0.0754   0.0000 
31    H11      3.7730   -3.3494    4.8841 H       1  LIG   0.1463   0.1500 
32    H12      1.4922   -3.1888    3.9478 H       1  LIG   0.1389   0.1500 
33    H13      1.0539   -3.8510    1.6001 H       1  LIG   0.1391   0.1500 
34    H14      2.8849   -4.7183    0.1860 H       1  LIG   0.1464   0.1500 
35    H15      6.2246   -7.7445   -0.9197 H       1  LIG   0.0423   0.0000 
36    H16      6.8585   -6.1059   -0.9929 H       1  LIG   0.0685   0.0000 
37    H17      8.6159   -7.5727   -0.1526 H       1  LIG   0.0382   0.0000 
38    H18      8.1190   -6.4893    1.1608 H       1  LIG   0.0570   0.0000 
39    H19      7.5775   -8.1736    1.1441 H       1  LIG   0.0393   0.0000 
40    H20      3.4817   -6.9912    0.9776 H       1  LIG   0.0478   0.0000 
41    H21      4.4616   -8.2527    0.2669 H       1  LIG   0.0452   0.0000 
42    H22      4.0340   -8.7420    2.6362 H       1  LIG   0.0371   0.0000 
43    H23      5.7617   -8.4190    2.4429 H       1  LIG   0.0393   0.0000 
44    H24      4.7013   -7.1872    3.1363 H       1  LIG   0.0786   0.0000 
@<TRIPOS>BOND
1     1     2     1
2     1     21    1
3     1     22    1
4     1     23    1
5     2     3     1
6     2     24    1
7     2     25    1
8     3     4     1
9     3     6     am
10    4     5     1
11    4     26    1
12    4     27    1
13    5     28    1
14    5     29    1
15    5     30    1
16    6     7     2
17    6     8     1
18    8     13    ar
19    8     9     ar
20    9     10    ar
21    9     31    1
22    10    11    ar
23    10    32    1
24    11    12    ar
25    11    33    1
26    12    13    ar
27    12    34    1
28    13    14    1
29    14    15    2
30    14    16    am
31    16    17    1
32    16    19    1
33    17    18    1
34    17    35    1
35    17    36    1
36    18    37    1
37    18    38    1
38    18    39    1
39    19    20    1
40    19    40    1
41    19    41    1
42    20    42    1
43    20    43    1
44    20    44    1
@<TRIPOS>SUBSTRUCTURE
1   LIG    1    
 
########## Number      : 484
########## Name        : ZINC00001936
########## Description : AM1BCC_CHARGES =  -0.0000 ORIGINAL_CHARGES =   0.0000

@<TRIPOS>MOLECULE
ZINC00001936
22    23    1     0     0    
SMALL
USER_CHARGES
****
****
@<TRIPOS>ATOM
1     C1       2.7890   -2.9055    2.8825 C.3     1  LIG  -0.0485   0.1382 
2     C2       2.8209   -4.0065    1.8612 C.2     1  LIG  -0.1812  -0.1238 
3     C3       3.4254   -5.1875    2.0576 C.2     1  LIG   0.0416   0.0911 
4     C4       3.4337   -6.2504    1.0208 C.2     1  LIG   0.5581   0.4694 
5     O1       3.9955   -7.3195    1.2316 O.2     1  LIG  -0.5259  -0.5700 
6     C5       2.7517   -5.9790   -0.2546 C.ar    1  LIG  -0.1377   0.0862 
7     C6       2.7403   -6.9593   -1.2543 C.ar    1  LIG  -0.0776  -0.1500 
8     C7       2.0961   -6.7104   -2.4664 C.ar    1  LIG  -0.1210  -0.1500 
9     C8       1.4643   -5.4873   -2.6827 C.ar    1  LIG  -0.1079  -0.1500 
10    C9       1.4748   -4.5092   -1.6875 C.ar    1  LIG  -0.0878  -0.1500 
11    C10      2.1204   -4.7553   -0.4693 C.ar    1  LIG  -0.1239   0.0862 
12    C11      2.1250   -3.7139    0.5754 C.2     1  LIG   0.5778   0.4694 
13    O2       1.5685   -2.6384    0.3829 O.2     1  LIG  -0.5150  -0.5700 
14    O3       4.0747   -5.4739    3.2443 O.3     1  LIG  -0.4832  -0.5267 
15    H1       4.4338   -6.3762    3.1614 H       1  LIG   0.4440   0.4500 
16    H2       3.3126   -3.1694    3.8065 H       1  LIG   0.0611   0.0000 
17    H3       3.2641   -2.0029    2.4837 H       1  LIG   0.0578   0.0000 
18    H4       1.7546   -2.6647    3.1500 H       1  LIG   0.0580   0.0000 
19    H5       3.2271   -7.9198   -1.1053 H       1  LIG   0.1595   0.1500 
20    H6       2.0870   -7.4709   -3.2423 H       1  LIG   0.1441   0.1500 
21    H7       0.9630   -5.2948   -3.6272 H       1  LIG   0.1440   0.1500 
22    H8       0.9757   -3.5623   -1.8778 H       1  LIG   0.1637   0.1500 
@<TRIPOS>BOND
1     1     2     1
2     1     16    1
3     1     17    1
4     1     18    1
5     2     12    1
6     2     3     2
7     3     4     1
8     3     14    1
9     4     5     2
10    4     6     1
11    6     11    ar
12    6     7     ar
13    7     8     ar
14    7     19    1
15    8     9     ar
16    8     20    1
17    9     10    ar
18    9     21    1
19    10    11    ar
20    10    22    1
21    11    12    1
22    12    13    2
23    14    15    1
@<TRIPOS>SUBSTRUCTURE
1   LIG    1    
 
########## Number      : 485
########## Name        : ZINC00001944
########## Description : AM1BCC_CHARGES =   0.9999 ORIGINAL_CHARGES =   1.0000

@<TRIPOS>MOLECULE
ZINC00001944
17    17    1     0     0    
SMALL
USER_CHARGES
****
****
@<TRIPOS>ATOM
1     C1       5.5998   -9.2128   -0.7025 C.ar    1  LIG  -0.2328  -0.1500 
2     C2       5.2321   -7.9409   -0.2746 C.ar    1  LIG  -0.0562  -0.1500 
3     C3       3.9369   -7.7082    0.1941 C.ar    1  LIG  -0.3311  -0.1435 
4     C4       3.0669   -8.7937    0.2202 C.ar    1  LIG   0.4396   0.1600 
5     N1       3.3918  -10.0417   -0.1863 N.ar    1  LIG  -0.6377  -0.6200 
6     C5       4.6516  -10.2197   -0.6397 C.ar    1  LIG   0.4571   0.1600 
7     C6       3.5169   -6.3602    0.6870 C.3     1  LIG   0.1838   0.6465 
8     H1       3.5563   -5.2029    2.4259 H       1  LIG   0.4591   0.4500 
9     H2       3.3958   -6.8260    2.7249 H       1  LIG   0.4598   0.4500 
10    H3       6.5995   -9.4102   -1.0729 H       1  LIG   0.1763   0.1500 
11    H4       5.9614   -7.1356   -0.3114 H       1  LIG   0.1480   0.1500 
12    H5       2.0477   -8.6908    0.5817 H       1  LIG   0.0324   0.1500 
13    H6       4.8888  -11.2286   -0.9615 H       1  LIG   0.0585   0.1500 
14    H7       4.0061   -5.5624    0.1180 H       1  LIG   0.1147   0.0000 
15    H8       2.4343   -6.2217    0.5952 H       1  LIG   0.1162   0.0000 
16    N2       3.8551   -6.1366    2.1151 N.4     1  LIG  -0.8463  -0.8530 
17    H9       4.8684   -6.2056    2.2780 H       1  LIG   0.4585   0.4500 
@<TRIPOS>BOND
1     1     6     ar
2     1     2     ar
3     1     10    1
4     2     3     ar
5     2     11    1
6     3     4     ar
7     3     7     1
8     4     5     ar
9     4     12    1
10    5     6     ar
11    6     13    1
12    7     14    1
13    7     15    1
14    7     16    1
15    8     16    1
16    9     16    1
17    16    17    1
@<TRIPOS>SUBSTRUCTURE
1   LIG    1    
 
########## Number      : 486
########## Name        : ZINC00001947
########## Description : AM1BCC_CHARGES =  -0.0000 ORIGINAL_CHARGES =   0.0000

@<TRIPOS>MOLECULE
ZINC00001947
26    28    1     0     0    
SMALL
USER_CHARGES
****
****
@<TRIPOS>ATOM
1     C1       5.2703   -8.2843    0.1638 C.ar    1  LIG  -0.1383  -0.1500 
2     C2       4.4454   -9.3611    0.4684 C.ar    1  LIG  -0.0930  -0.1500 
3     C3       3.1933   -9.1353    1.0358 C.ar    1  LIG  -0.1355  -0.1500 
4     C4       2.7571   -7.8286    1.2951 C.ar    1  LIG   0.0578   0.1770 
5     C5       3.5731   -6.7275    0.9782 C.ar    1  LIG  -0.1452   0.0530 
6     C6       4.8393   -6.9810    0.4198 C.ar    1  LIG  -0.0747  -0.1500 
7     C7       3.2029   -5.3362    1.2026 C.2     1  LIG   0.5638   0.4251 
8     N1       3.9608   -4.3096    1.5159 N.2     1  LIG  -0.6742  -0.5653 
9     C8       3.0673   -3.2606    1.5315 C.2     1  LIG   0.5776   0.4620 
10    N2       1.8102   -3.6169    1.2207 N.2     1  LIG  -0.3546  -0.4097 
11    O1       1.9015   -4.9872    0.9896 O.3     1  LIG  -0.1155  -0.0191 
12    C9       3.4733   -1.8993    1.8522 C.ar    1  LIG  -0.0907   0.0540 
13    C10      2.5482   -0.8511    1.8583 C.ar    1  LIG  -0.2129  -0.1500 
14    C11      2.9960    0.4242    2.1719 C.ar    1  LIG   0.3859   0.1600 
15    N3       4.2768    0.7244    2.4744 N.ar    1  LIG  -0.6510  -0.6200 
16    C12      5.1507   -0.3043    2.4620 C.ar    1  LIG   0.3838   0.1600 
17    C13      4.8063   -1.6144    2.1623 C.ar    1  LIG  -0.2066  -0.1500 
18    Cl1      1.2120   -7.6650    2.0600 Cl      1  LIG  -0.0585  -0.1770 
19    H1       6.2498   -8.4558   -0.2737 H       1  LIG   0.1459   0.1500 
20    H2       4.7787  -10.3759    0.2712 H       1  LIG   0.1446   0.1500 
21    H3       2.5657   -9.9892    1.2812 H       1  LIG   0.1553   0.1500 
22    H4       5.5060   -6.1579    0.1670 H       1  LIG   0.1570   0.1500 
23    H5       1.4990   -1.0056    1.6268 H       1  LIG   0.1614   0.1500 
24    H6       2.3093    1.2646    2.1874 H       1  LIG   0.0271   0.1500 
25    H7       6.1749   -0.0425    2.7079 H       1  LIG   0.0265   0.1500 
26    H8       5.5713   -2.3845    2.1747 H       1  LIG   0.1640   0.1500 
@<TRIPOS>BOND
1     1     6     ar
2     1     2     ar
3     1     19    1
4     2     3     ar
5     2     20    1
6     3     4     ar
7     3     21    1
8     4     5     ar
9     4     18    1
10    5     6     ar
11    5     7     1
12    6     22    1
13    7     11    1
14    7     8     2
15    8     9     1
16    9     10    2
17    9     12    1
18    10    11    1
19    12    17    ar
20    12    13    ar
21    13    14    ar
22    13    23    1
23    14    15    ar
24    14    24    1
25    15    16    ar
26    16    17    ar
27    16    25    1
28    17    26    1
@<TRIPOS>SUBSTRUCTURE
1   LIG    1    
 
########## Number      : 487
########## Name        : ZINC00001949
########## Description : AM1BCC_CHARGES =   1.9999 ORIGINAL_CHARGES =   2.0000

@<TRIPOS>MOLECULE
ZINC00001949
46    47    1     0     0    
SMALL
USER_CHARGES
****
****
@<TRIPOS>ATOM
1     C1       6.1170   -9.6622   -1.6176 C.3     1  LIG   0.0799   0.5030 
2     C2       4.8457  -10.3204    0.4088 C.3     1  LIG   0.0735   0.5030 
3     C3       4.7914   -7.9257   -0.4084 C.3     1  LIG   0.0793   0.5030 
4     C4       3.4046   -7.5958    0.1430 C.3     1  LIG   0.0836   0.5030 
5     C5       1.7378   -5.7569    0.4297 C.3     1  LIG   0.1212   0.5030 
6     C6       1.5479   -4.2476    0.3950 C.3     1  LIG  -0.1134   0.0000 
7     C7       2.3923   -3.5373    1.4627 C.3     1  LIG  -0.0756   0.0000 
8     C8       3.8656   -3.9451    1.3137 C.3     1  LIG  -0.1101   0.0000 
9     C9       4.0457   -5.4575    1.3380 C.3     1  LIG   0.1157   0.5030 
10    C10      2.1983   -2.0112    1.3545 C.3     1  LIG  -0.0233   0.1435 
11    C11      2.8202   -1.2374    2.4912 C.ar    1  LIG  -0.1273  -0.1435 
12    C12      2.2481   -1.2705    3.7706 C.ar    1  LIG  -0.1281  -0.1500 
13    C13      2.8265   -0.5599    4.8234 C.ar    1  LIG  -0.1161  -0.1500 
14    C14      3.9807    0.1906    4.6081 C.ar    1  LIG  -0.1048  -0.1500 
15    C15      4.5569    0.2321    3.3400 C.ar    1  LIG  -0.1182  -0.1500 
16    C16      3.9799   -0.4777    2.2856 C.ar    1  LIG  -0.1293  -0.1500 
17    H1       6.1074  -10.7163   -1.9074 H       1  LIG   0.1334   0.0000 
18    H2       6.0610   -9.0334   -2.5100 H       1  LIG   0.1155   0.0000 
19    H3       7.0034   -9.4250   -1.0233 H       1  LIG   0.1200   0.0000 
20    H4       4.9413  -11.3467    0.0441 H       1  LIG   0.1357   0.0000 
21    H5       5.6693  -10.0663    1.0812 H       1  LIG   0.1201   0.0000 
22    H6       3.8796  -10.2009    0.9035 H       1  LIG   0.1005   0.0000 
23    H7       4.9773   -7.3574   -1.3265 H       1  LIG   0.1183   0.0000 
24    H8       5.5908   -7.7206    0.3105 H       1  LIG   0.1290   0.0000 
25    H9       3.2360   -8.0159    1.1398 H       1  LIG   0.1259   0.0000 
26    H10      2.6328   -7.9674   -0.5402 H       1  LIG   0.1137   0.0000 
27    H11      1.1904   -6.2261   -0.3945 H       1  LIG   0.1014   0.0000 
28    H12      1.4112   -6.1908    1.3813 H       1  LIG   0.1101   0.0000 
29    H13      1.8116   -3.8701   -0.6016 H       1  LIG   0.0791   0.0000 
30    H14      0.4864   -4.0189    0.5486 H       1  LIG   0.1215   0.0000 
31    H15      2.0421   -3.8739    2.4482 H       1  LIG   0.0799   0.0000 
32    H16      4.2696   -3.5458    0.3744 H       1  LIG   0.0756   0.0000 
33    H17      4.4633   -3.5135    2.1244 H       1  LIG   0.1313   0.0000 
34    H18      3.7353   -5.8912    2.2950 H       1  LIG   0.1107   0.0000 
35    H19      5.0920   -5.7082    1.1446 H       1  LIG   0.0845   0.0000 
36    H20      2.5952   -1.6511    0.3963 H       1  LIG   0.0566   0.0000 
37    H21      1.1260   -1.7741    1.3365 H       1  LIG   0.0759   0.0000 
38    H22      1.3462   -1.8493    3.9541 H       1  LIG   0.1281   0.1500 
39    H23      2.3758   -0.5911    5.8113 H       1  LIG   0.1509   0.1500 
40    H24      4.4301    0.7438    5.4278 H       1  LIG   0.1550   0.1500 
41    H25      5.4562    0.8178    3.1715 H       1  LIG   0.1502   0.1500 
42    H26      4.4438   -0.4351    1.3033 H       1  LIG   0.1277   0.1500 
43    N1       4.8917   -9.3952   -0.7792 N.4     1  LIG  -0.6759  -0.9590 
44    H27      4.0843   -9.6264   -1.3745 H       1  LIG   0.4600   0.4500 
45    N2       3.2050   -6.0908    0.2509 N.4     1  LIG  -0.6930  -0.9590 
46    H28      3.4931   -5.6774   -0.6473 H       1  LIG   0.4512   0.4500 
@<TRIPOS>BOND
1     1     17    1
2     1     18    1
3     1     19    1
4     1     43    1
5     2     20    1
6     2     21    1
7     2     22    1
8     2     43    1
9     3     4     1
10    3     23    1
11    3     24    1
12    3     43    1
13    4     25    1
14    4     26    1
15    4     45    1
16    5     6     1
17    5     27    1
18    5     28    1
19    5     45    1
20    6     7     1
21    6     29    1
22    6     30    1
23    7     8     1
24    7     10    1
25    7     31    1
26    8     9     1
27    8     32    1
28    8     33    1
29    9     34    1
30    9     35    1
31    9     45    1
32    10    11    1
33    10    36    1
34    10    37    1
35    11    16    ar
36    11    12    ar
37    12    13    ar
38    12    38    1
39    13    14    ar
40    13    39    1
41    14    15    ar
42    14    40    1
43    15    16    ar
44    15    41    1
45    16    42    1
46    43    44    1
47    45    46    1
@<TRIPOS>SUBSTRUCTURE
1   LIG    1    
 
########## Number      : 488
########## Name        : ZINC00001952
########## Description : AM1BCC_CHARGES =   2.0002 ORIGINAL_CHARGES =   2.0000

@<TRIPOS>MOLECULE
ZINC00001952
46    48    1     0     0    
SMALL
USER_CHARGES
****
****
@<TRIPOS>ATOM
1     C1      -0.0392    7.6701   14.5841 C.3     1  LIG  -0.1070   0.0000 
2     C2      -0.1895    8.8701   13.6468 C.3     1  LIG  -0.1124   0.0000 
3     C3       0.5730    8.6633   12.3187 C.3     1  LIG   0.1294   0.5030 
4     C4       2.1728    7.1408   13.5277 C.3     1  LIG   0.0977   0.5030 
5     C5       1.4382    7.3413   14.8458 C.3     1  LIG   0.0003   0.2900 
6     Cl1      1.5768    5.8849   15.8325 Cl      1  LIG  -0.0566  -0.2900 
7     C6       0.5198    9.9316   11.4175 C.3     1  LIG  -0.0022   0.3611 
8     C7      -0.8789   10.2106   10.8590 C.2     1  LIG   0.6870   0.5690 
9     O1      -1.9197    9.7577   11.3231 O.2     1  LIG  -0.5473  -0.5700 
10    N1      -0.8735   11.1329    9.8233 N.am    1  LIG  -0.5697  -0.7301 
11    C8       0.3291   11.8527    9.4395 C.3     1  LIG   0.0301   0.3611 
12    C9       1.4441   10.8147    9.2950 C.2     1  LIG   0.6832   0.5690 
13    O2       2.3716   10.9155    8.4963 O.2     1  LIG  -0.6039  -0.5700 
14    N2       1.3863    9.8110   10.2511 N.am    1  LIG  -0.5630  -0.7301 
15    C10      0.0777   12.6905    8.1588 C.3     1  LIG   0.1229   0.5030 
16    C11     -0.3054   11.8428    6.9300 C.3     1  LIG  -0.1075   0.0000 
17    C12     -0.4633   12.7111    5.6800 C.3     1  LIG  -0.1076   0.0000 
18    C13      0.7994   13.5484    5.4145 C.3     1  LIG   0.0010   0.2900 
19    C14      1.1568   14.3760    6.6437 C.3     1  LIG   0.0993   0.5030 
20    Cl2      0.5456   14.6158    4.0323 Cl      1  LIG  -0.0605  -0.2900 
21    H1      -1.7776   11.4260    9.4638 H       1  LIG   0.3641   0.3700 
22    H2       2.1139    9.1077   10.1978 H       1  LIG   0.3356   0.3700 
23    H3      -0.5464    6.8048   14.1375 H       1  LIG   0.0927   0.0000 
24    H4      -0.5494    7.8852   15.5309 H       1  LIG   0.1203   0.0000 
25    H5      -1.2568    9.0297   13.4729 H       1  LIG   0.1364   0.0000 
26    H6       0.1835    9.7696   14.1537 H       1  LIG   0.0708   0.0000 
27    H7       0.1160    7.8122   11.7843 H       1  LIG   0.1390   0.0000 
28    H8       1.7952    6.2855   12.9560 H       1  LIG   0.1258   0.0000 
29    H9       3.2507    7.0229   13.6786 H       1  LIG   0.1284   0.0000 
30    H10      1.8533    8.2214   15.3698 H       1  LIG   0.1005   0.0000 
31    H11      0.8234   10.7914   12.0376 H       1  LIG   0.1034   0.0000 
32    H12      0.6291   12.5537   10.2364 H       1  LIG   0.0882   0.0000 
33    H13     -0.7660   13.3764    8.3561 H       1  LIG   0.1222   0.0000 
34    H14      0.4523   11.0761    6.7312 H       1  LIG   0.0886   0.0000 
35    H15     -1.2474   11.3134    7.1136 H       1  LIG   0.1008   0.0000 
36    H16     -0.6768   12.0679    4.8177 H       1  LIG   0.1179   0.0000 
37    H17     -1.3324   13.3691    5.8106 H       1  LIG   0.0861   0.0000 
38    H18      1.6057   12.8189    5.2159 H       1  LIG   0.1061   0.0000 
39    H19      2.1169   14.8880    6.5226 H       1  LIG   0.1305   0.0000 
40    H20      0.3866   15.1133    6.8970 H       1  LIG   0.1210   0.0000 
41    N3       1.9968    8.3525   12.6633 N.4     1  LIG  -0.7649  -0.9060 
42    H21      2.5423    8.1930   11.8083 H       1  LIG   0.4503   0.4500 
43    H22      2.4337    9.1649   13.1224 H       1  LIG   0.4538   0.4500 
44    N4       1.3036   13.4761    7.8312 N.4     1  LIG  -0.7670  -0.9060 
45    H23      1.5717   14.0526    8.6412 H       1  LIG   0.4540   0.4500 
46    H24      2.0974   12.8345    7.6753 H       1  LIG   0.4824   0.4500 
@<TRIPOS>BOND
1     1     5     1
2     1     2     1
3     1     23    1
4     1     24    1
5     2     3     1
6     2     25    1
7     2     26    1
8     3     7     1
9     3     27    1
10    3     41    1
11    4     5     1
12    4     28    1
13    4     29    1
14    4     41    1
15    5     6     1
16    5     30    1
17    7     14    1
18    7     8     1
19    7     31    1
20    8     9     2
21    8     10    am
22    10    11    1
23    10    21    1
24    11    12    1
25    11    15    1
26    11    32    1
27    12    13    2
28    12    14    am
29    14    22    1
30    15    16    1
31    15    33    1
32    15    44    1
33    16    17    1
34    16    34    1
35    16    35    1
36    17    18    1
37    17    36    1
38    17    37    1
39    18    19    1
40    18    20    1
41    18    38    1
42    19    39    1
43    19    40    1
44    19    44    1
45    41    42    1
46    41    43    1
47    44    45    1
48    44    46    1
@<TRIPOS>SUBSTRUCTURE
1   LIG    1    
 
########## Number      : 489
########## Name        : ZINC00001953
########## Description : AM1BCC_CHARGES =   0.0000 ORIGINAL_CHARGES =   0.0000

@<TRIPOS>MOLECULE
ZINC00001953
17    18    1     0     0    
SMALL
USER_CHARGES
****
****
@<TRIPOS>ATOM
1     C1       5.4229   -6.9557   -1.9777 C.ar    1  LIG  -0.0831  -0.1500 
2     C2       4.6156   -6.3081   -2.9168 C.ar    1  LIG  -0.1318  -0.1500 
3     C3       3.2571   -6.2666   -2.6776 C.ar    1  LIG   0.0881   0.0825 
4     C4       2.6994   -6.8389   -1.5567 C.ar    1  LIG   0.0382   0.0825 
5     C5       3.4668   -7.4857   -0.6100 C.ar    1  LIG  -0.0554  -0.1500 
6     C6       4.8470   -7.5394   -0.8329 C.ar    1  LIG  -0.2007   0.0862 
7     C7       5.7313   -8.2136    0.1347 C.2     1  LIG   0.5778   0.4238 
8     O1       5.3043   -8.7435    1.1521 O.2     1  LIG  -0.5244  -0.5700 
9     O2       1.3478   -6.6841   -1.5159 O.3     1  LIG  -0.3293  -0.3625 
10    C8       1.1176   -5.9505   -2.7361 C.3     1  LIG   0.3203   0.5600 
11    O3       2.3248   -5.6822   -3.4783 O.3     1  LIG  -0.3307  -0.3625 
12    H1       6.4961   -7.0008   -2.1452 H       1  LIG   0.1408   0.1500 
13    H2       5.0461   -5.8545   -3.8025 H       1  LIG   0.1602   0.1500 
14    H3       3.0078   -7.9301    0.2663 H       1  LIG   0.1773   0.1500 
15    H4       6.8085   -8.2190   -0.1027 H       1  LIG  -0.0003   0.0600 
16    H5       0.4371   -6.5299   -3.3707 H       1  LIG   0.0763   0.0000 
17    H6       0.6395   -4.9962   -2.4870 H       1  LIG   0.0767   0.0000 
@<TRIPOS>BOND
1     1     6     ar
2     1     2     ar
3     1     12    1
4     2     3     ar
5     2     13    1
6     3     11    1
7     3     4     ar
8     4     5     ar
9     4     9     1
10    5     6     ar
11    5     14    1
12    6     7     1
13    7     8     2
14    7     15    1
15    9     10    1
16    10    11    1
17    10    16    1
18    10    17    1
@<TRIPOS>SUBSTRUCTURE
1   LIG    1    
 
########## Number      : 490
########## Name        : ZINC00001963
########## Description : AM1BCC_CHARGES =  -0.9999 ORIGINAL_CHARGES =  -1.0000

@<TRIPOS>MOLECULE
ZINC00001963
34    35    1     0     0    
SMALL
USER_CHARGES
****
****
@<TRIPOS>ATOM
1     C1       5.0182  -11.3369   -0.0188 C.3     1  LIG  -0.0508   0.1435 
2     C2       4.5042   -9.9388    0.1966 C.ar    1  LIG  -0.0542  -0.1435 
3     C3       3.3648   -9.5319   -0.5117 C.ar    1  LIG  -0.1645  -0.1500 
4     C4       2.8541   -8.2490   -0.3561 C.ar    1  LIG  -0.1056  -0.1500 
5     C5       3.4766   -7.3520    0.5083 C.ar    1  LIG  -0.1742  -0.1500 
6     C6       4.6166   -7.7195    1.2412 C.ar    1  LIG   0.1801   0.1000 
7     C7       5.1210   -9.0413    1.1027 C.ar    1  LIG  -0.1207  -0.1435 
8     C8       6.3404   -9.4676    1.8875 C.3     1  LIG  -0.0542   0.1435 
9     N1       5.2485   -6.8144    2.1218 N.pl3   1  LIG  -0.7619  -0.6000 
10    C9       4.7904   -5.7264    2.8814 C.ar    1  LIG   0.7083   0.4100 
11    C10      3.4534   -5.5397    3.1894 C.ar    1  LIG  -0.4666  -0.1500 
12    C11      3.1487   -4.4347    3.9559 C.ar    1  LIG   0.5721   0.4870 
13    N2       4.0499   -3.5533    4.4170 N.ar    1  LIG  -0.7403  -0.6200 
14    C12      5.3257   -3.8155    4.0907 C.ar    1  LIG   0.7465   0.7215 
15    N3       5.7312   -4.8694    3.3480 N.ar    1  LIG  -0.7743  -0.6200 
16    S1       6.6160   -2.7205    4.6574 S.3     1  LIG  -0.0846  -0.3315 
17    C13      5.6513   -1.5053    5.6053 C.3     1  LIG  -0.1960   0.1240 
18    C14      6.7064   -0.5353    6.1254 C.2     1  LIG   0.9265   0.9060 
19    O1       7.1896   -0.8200    7.2588 O.co2   1  LIG  -0.8098  -0.9000 
20    Cl1      1.5265   -4.0964    4.4061 Cl      1  LIG  -0.1814  -0.1770 
21    H1       6.2620   -6.8738    2.1186 H       1  LIG   0.4527   0.4000 
22    H2       4.5202  -11.8226   -0.8650 H       1  LIG   0.0359   0.0000 
23    H3       6.0893  -11.3223   -0.2449 H       1  LIG   0.0425   0.0000 
24    H4       4.8365  -11.9477    0.8710 H       1  LIG   0.0436   0.0000 
25    H5       2.8698  -10.2139   -1.1991 H       1  LIG   0.1249   0.1500 
26    H6       1.9780   -7.9407   -0.9195 H       1  LIG   0.1282   0.1500 
27    H7       3.0757   -6.3436    0.5675 H       1  LIG   0.1514   0.1500 
28    H8       6.3333   -9.0394    2.8953 H       1  LIG   0.0543   0.0000 
29    H9       6.3824  -10.5510    2.0307 H       1  LIG   0.0394   0.0000 
30    H10      7.2477   -9.1470    1.3663 H       1  LIG   0.0402   0.0000 
31    H11      2.6793   -6.2297    2.8797 H       1  LIG   0.1587   0.1500 
32    H12      4.9323   -0.9873    4.9632 H       1  LIG   0.0717   0.0000 
33    H13      5.1233   -1.9844    6.4355 H       1  LIG   0.0721   0.0000 
34    O2       6.9447    0.4556    5.3768 O.co2   1  LIG  -0.8099  -0.9000 
@<TRIPOS>BOND
1     1     2     1
2     1     22    1
3     1     23    1
4     1     24    1
5     2     7     ar
6     2     3     ar
7     3     4     ar
8     3     25    1
9     4     5     ar
10    4     26    1
11    5     6     ar
12    5     27    1
13    6     7     ar
14    6     9     1
15    7     8     1
16    8     28    1
17    8     29    1
18    8     30    1
19    9     10    1
20    9     21    1
21    10    15    ar
22    10    11    ar
23    11    12    ar
24    11    31    1
25    12    13    ar
26    12    20    1
27    13    14    ar
28    14    15    ar
29    14    16    1
30    16    17    1
31    17    18    1
32    17    32    1
33    17    33    1
34    18    19    2
35    18    34    1
@<TRIPOS>SUBSTRUCTURE
1   LIG    1    
 
########## Number      : 491
########## Name        : ZINC00001964
########## Description : AM1BCC_CHARGES =  -0.0002 ORIGINAL_CHARGES =   0.0000

@<TRIPOS>MOLECULE
ZINC00001964
39    41    1     0     0    
SMALL
USER_CHARGES
****
****
@<TRIPOS>ATOM
1     C1       0.5700   13.0953   12.4192 C.3     1  LIG  -0.1289   0.0000 
2     C2      -0.4204   12.0362   11.9743 C.3     1  LIG   0.1367   0.2800 
3     O1       0.1669   11.2124   10.9543 O.3     1  LIG  -0.4107  -0.4300 
4     C3       0.0413   11.6475    9.6862 C.2     1  LIG   0.5583   0.7200 
5     O2      -0.5075   12.6393    9.2482 O.2     1  LIG  -0.4991  -0.5700 
6     C4       0.7088   10.6522    8.7781 C.2     1  LIG   0.6772   0.5000 
7     N1      -0.0994    9.8021    8.0720 N.pl3   1  LIG  -0.8243  -0.5500 
8     C5       0.4827    8.8641    7.2139 C.ar    1  LIG   0.6720   0.4100 
9     C6       1.8693    8.8399    7.1177 C.ar    1  LIG  -0.3248   0.0862 
10    C7       2.4703    7.9147    6.2707 C.ar    1  LIG   0.0154  -0.1500 
11    C8       1.6715    7.0306    5.5352 C.ar    1  LIG  -0.1780   0.0000 
12    C9       2.2357    6.0793    4.6672 C.ar    1  LIG  -0.1691  -0.1500 
13    C10      1.4225    5.2055    3.9415 C.ar    1  LIG   0.1129   0.0825 
14    C11      0.0291    5.2867    4.0879 C.ar    1  LIG   0.1544   0.0825 
15    C12     -0.5208    6.2398    4.9568 C.ar    1  LIG  -0.2678  -0.1500 
16    C13      0.2755    7.1171    5.6866 C.ar    1  LIG   0.4715   0.3100 
17    N2      -0.3013    8.0155    6.5088 N.ar    1  LIG  -0.7153  -0.6200 
18    O3      -0.7045    4.3959    3.3430 O.3     1  LIG  -0.2976  -0.3625 
19    C14     -2.1204    4.4489    3.4650 C.3     1  LIG   0.1061   0.2800 
20    O4       1.8824    4.2474    3.0730 O.3     1  LIG  -0.2988  -0.3625 
21    C15      3.2902    4.1399    2.9023 C.3     1  LIG   0.1070   0.2800 
22    C16      2.6681    9.8041    7.9226 C.2     1  LIG   0.7139   0.6948 
23    O5       3.8908    9.7712    7.8277 O.2     1  LIG  -0.5182  -0.5700 
24    N3       2.0055   10.6982    8.7446 N.2     1  LIG  -0.6519  -0.6610 
25    H1      -1.1094    9.8176    8.1351 H       1  LIG   0.4753   0.4000 
26    H2       0.1552   13.6976   13.2324 H       1  LIG   0.0516   0.0000 
27    H3       1.5010   12.6318   12.7616 H       1  LIG   0.0573   0.0000 
28    H4       0.8314   13.7599   11.5895 H       1  LIG   0.0589   0.0000 
29    H5      -0.6684   11.3810   12.8154 H       1  LIG   0.0746   0.0000 
30    H6      -1.3555   12.4877   11.6236 H       1  LIG   0.0627   0.0000 
31    H7       3.5534    7.8770    6.1789 H       1  LIG   0.1676   0.1500 
32    H8       3.3180    6.0412    4.5753 H       1  LIG   0.1498   0.1500 
33    H9      -1.5976    6.3193    5.0848 H       1  LIG   0.1625   0.1500 
34    H10     -2.5405    3.6796    2.8099 H       1  LIG   0.0743   0.0000 
35    H11     -2.4374    4.2225    4.4883 H       1  LIG   0.0389   0.0000 
36    H12     -2.5096    5.4168    3.1323 H       1  LIG   0.0392   0.0000 
37    H13      3.4786    3.3360    2.1842 H       1  LIG   0.0740   0.0000 
38    H14      3.7091    5.0620    2.4859 H       1  LIG   0.0362   0.0000 
39    H15      3.7823    3.8679    3.8419 H       1  LIG   0.0360   0.0000 
@<TRIPOS>BOND
1     1     2     1
2     1     26    1
3     1     27    1
4     1     28    1
5     2     3     1
6     2     29    1
7     2     30    1
8     3     4     1
9     4     5     2
10    4     6     1
11    6     24    2
12    6     7     1
13    7     8     1
14    7     25    1
15    8     17    ar
16    8     9     ar
17    9     10    ar
18    9     22    1
19    10    11    ar
20    10    31    1
21    11    16    ar
22    11    12    ar
23    12    13    ar
24    12    32    1
25    13    14    ar
26    13    20    1
27    14    15    ar
28    14    18    1
29    15    16    ar
30    15    33    1
31    16    17    ar
32    18    19    1
33    19    34    1
34    19    35    1
35    19    36    1
36    20    21    1
37    21    37    1
38    21    38    1
39    21    39    1
40    22    23    2
41    22    24    1
@<TRIPOS>SUBSTRUCTURE
1   LIG    1    
 
########## Number      : 492
########## Name        : ZINC00001968
########## Description : AM1BCC_CHARGES =   0.9999 ORIGINAL_CHARGES =   1.0000

@<TRIPOS>MOLECULE
ZINC00001968
43    46    1     0     0    
SMALL
USER_CHARGES
****
****
@<TRIPOS>ATOM
1     C1       4.9784  -10.5026    4.2457 C.3     1  LIG   0.0841   0.5030 
2     C2       6.3097   -8.4218    4.0393 C.3     1  LIG   0.1159   0.5030 
3     C3       6.8318   -7.3767    3.0555 C.3     1  LIG  -0.0538   0.1382 
4     C4       5.6898   -6.6442    2.3653 C.2     1  LIG  -0.2087  -0.2764 
5     C5       5.5204   -5.2926    2.3823 C.2     1  LIG   0.1376   0.0176 
6     C6       4.2941   -4.7099    1.7684 C.ar    1  LIG  -0.0902   0.0284 
7     C7       4.1467   -4.6468    0.3750 C.ar    1  LIG  -0.1171  -0.1500 
8     C8       3.0024   -4.0779   -0.1827 C.ar    1  LIG  -0.1258  -0.1500 
9     C9       2.0084   -3.5563    0.6431 C.ar    1  LIG  -0.1082  -0.1500 
10    C10      2.1577   -3.5919    2.0302 C.ar    1  LIG  -0.1213  -0.1500 
11    C11      3.3013   -4.1606    2.6063 C.ar    1  LIG  -0.0633  -0.1435 
12    C12      3.4874   -4.1518    4.1076 C.3     1  LIG  -0.0289   0.1435 
13    C13      4.5902   -3.1873    4.5597 C.3     1  LIG  -0.0118   0.1800 
14    C14      5.9751   -3.4796    4.0291 C.2     1  LIG  -0.0825  -0.1400 
15    C15      6.4136   -4.3851    3.0728 C.2     1  LIG  -0.1313  -0.0460 
16    C16      7.8115   -4.2473    2.8016 C.2     1  LIG  -0.1505  -0.1500 
17    C17      8.4057   -3.2962    3.5978 C.2     1  LIG  -0.1739  -0.1100 
18    S1       7.2848   -2.5436    4.6408 S.3     1  LIG   0.0924  -0.0800 
19    C18      4.7398   -7.6377    1.7089 C.3     1  LIG  -0.0561   0.1382 
20    C19      4.2421   -8.6758    2.7111 C.3     1  LIG   0.1163   0.5030 
21    H1       4.3621  -11.1998    3.6722 H       1  LIG   0.1018   0.0000 
22    H2       5.8731  -11.0117    4.6137 H       1  LIG   0.1017   0.0000 
23    H3       4.4090  -10.0614    5.0682 H       1  LIG   0.1039   0.0000 
24    H4       5.7286   -7.9683    4.8512 H       1  LIG   0.1034   0.0000 
25    H5       7.1429   -8.9929    4.4626 H       1  LIG   0.0943   0.0000 
26    H6       7.4925   -6.7112    3.6149 H       1  LIG   0.1123   0.0000 
27    H7       7.4523   -7.8598    2.2900 H       1  LIG   0.0673   0.0000 
28    H8       4.9180   -5.0411   -0.2821 H       1  LIG   0.1365   0.1500 
29    H9       2.8875   -4.0373   -1.2622 H       1  LIG   0.1462   0.1500 
30    H10      1.1193   -3.1107    0.2057 H       1  LIG   0.1479   0.1500 
31    H11      1.3797   -3.1624    2.6565 H       1  LIG   0.1445   0.1500 
32    H12      2.5474   -3.8582    4.5922 H       1  LIG   0.0620   0.0000 
33    H13      3.6914   -5.1720    4.4579 H       1  LIG   0.0404   0.0000 
34    H14      4.3157   -2.1664    4.2614 H       1  LIG   0.0739   0.0000 
35    H15      4.6221   -3.2027    5.6569 H       1  LIG   0.0604   0.0000 
36    H16      8.3599   -4.8210    2.0645 H       1  LIG   0.1541   0.1500 
37    H17      9.4459   -3.0023    3.6089 H       1  LIG   0.1858   0.1500 
38    H18      3.8609   -7.1672    1.2626 H       1  LIG   0.1120   0.0000 
39    H19      5.2706   -8.1363    0.8875 H       1  LIG   0.0674   0.0000 
40    H20      3.6245   -9.4266    2.2070 H       1  LIG   0.0948   0.0000 
41    H21      3.6679   -8.2200    3.5265 H       1  LIG   0.1043   0.0000 
42    N1       5.4192   -9.4001    3.3143 N.4     1  LIG  -0.6832  -0.9590 
43    H22      5.9395   -9.8843    2.5623 H       1  LIG   0.4453   0.4500 
@<TRIPOS>BOND
1     1     21    1
2     1     22    1
3     1     23    1
4     1     42    1
5     2     3     1
6     2     24    1
7     2     25    1
8     2     42    1
9     3     4     1
10    3     26    1
11    3     27    1
12    4     5     2
13    4     19    1
14    5     15    1
15    5     6     1
16    6     11    ar
17    6     7     ar
18    7     8     ar
19    7     28    1
20    8     9     ar
21    8     29    1
22    9     10    ar
23    9     30    1
24    10    11    ar
25    10    31    1
26    11    12    1
27    12    13    1
28    12    32    1
29    12    33    1
30    13    14    1
31    13    34    1
32    13    35    1
33    14    18    1
34    14    15    2
35    15    16    1
36    16    17    2
37    16    36    1
38    17    18    1
39    17    37    1
40    19    20    1
41    19    38    1
42    19    39    1
43    20    40    1
44    20    41    1
45    20    42    1
46    42    43    1
@<TRIPOS>SUBSTRUCTURE
1   LIG    1    
 
########## Number      : 493
########## Name        : ZINC00001969
########## Description : AM1BCC_CHARGES =  -0.0003 ORIGINAL_CHARGES =   0.0000

@<TRIPOS>MOLECULE
ZINC00001969
39    40    1     0     0    
SMALL
USER_CHARGES
****
****
@<TRIPOS>ATOM
1     C1       5.8200   -7.6203   -1.0080 C.3     1  LIG  -0.0908   0.0000 
2     C2       5.9268   -6.4959    0.0611 C.3     1  LIG  -0.0428   0.0000 
3     C3       5.8010   -7.1607    1.4533 C.3     1  LIG  -0.0719   0.0000 
4     C4       4.3647   -7.1994    1.9383 C.3     1  LIG  -0.0763   0.0000 
5     C5       3.8428   -5.7890    2.1822 C.3     1  LIG  -0.0788   0.0000 
6     C6       4.2254   -4.7481    1.0770 C.3     1  LIG  -0.0252   0.0000 
7     C7       4.7596   -5.4712   -0.2265 C.3     1  LIG  -0.0417   0.0000 
8     C8       5.1216   -4.4149   -1.3105 C.3     1  LIG  -0.0653   0.1382 
9     C9       4.1438   -3.2845   -1.4381 C.2     1  LIG  -0.0647  -0.2882 
10    C10      3.1874   -3.0330   -0.5327 C.2     1  LIG  -0.2428  -0.1238 
11    C11      2.9662   -3.8681    0.7001 C.3     1  LIG  -0.1344   0.1992 
12    C12      1.7389   -4.7118    0.4254 C.2     1  LIG   0.5737   0.4490 
13    O1       0.6007   -4.3398    0.7024 O.2     1  LIG  -0.5289  -0.5700 
14    C13      2.3087   -1.8474   -0.7343 C.2     1  LIG   0.5657   0.4956 
15    O2       2.3639   -1.1054   -1.7071 O.2     1  LIG  -0.5332  -0.5700 
16    C14      5.3115   -3.8192    1.6935 C.3     1  LIG  -0.0894   0.0000 
17    C15      7.3555   -5.9260   -0.0761 C.3     1  LIG  -0.0900   0.0000 
18    H1       6.6148   -8.3653   -0.8837 H       1  LIG   0.0381   0.0000 
19    H2       4.8626   -8.1488   -0.9399 H       1  LIG   0.0357   0.0000 
20    H3       5.9069   -7.2163   -2.0226 H       1  LIG   0.0338   0.0000 
21    H4       6.2039   -8.1812    1.4315 H       1  LIG   0.0444   0.0000 
22    H5       6.4069   -6.6243    2.1943 H       1  LIG   0.0444   0.0000 
23    H6       3.7280   -7.7157    1.2104 H       1  LIG   0.0405   0.0000 
24    H7       4.3015   -7.7736    2.8700 H       1  LIG   0.0451   0.0000 
25    H8       2.7598   -5.8591    2.3277 H       1  LIG   0.0419   0.0000 
26    H9       4.2196   -5.4480    3.1563 H       1  LIG   0.0483   0.0000 
27    H10      3.9318   -6.0456   -0.6858 H       1  LIG   0.0459   0.0000 
28    H11      6.0984   -3.9598   -1.1196 H       1  LIG   0.0711   0.0000 
29    H12      5.1957   -4.9187   -2.2818 H       1  LIG   0.0619   0.0000 
30    H13      4.2742   -2.6385   -2.3029 H       1  LIG   0.1489   0.1500 
31    H14      2.7981   -3.2056    1.5647 H       1  LIG   0.0830   0.0000 
32    H15      1.8901   -5.6663   -0.1039 H       1  LIG   0.0052   0.0600 
33    H16      1.5804   -1.6697    0.0747 H       1  LIG   0.0160   0.0600 
34    H17      4.8917   -3.2411    2.5262 H       1  LIG   0.0370   0.0000 
35    H18      6.1527   -4.3798    2.1068 H       1  LIG   0.0428   0.0000 
36    H19      5.7093   -3.0938    0.9791 H       1  LIG   0.0414   0.0000 
37    H20      7.5205   -5.0540    0.5602 H       1  LIG   0.0389   0.0000 
38    H21      8.1020   -6.6777    0.2085 H       1  LIG   0.0375   0.0000 
39    H22      7.5822   -5.6373   -1.1083 H       1  LIG   0.0347   0.0000 
@<TRIPOS>BOND
1     1     2     1
2     1     18    1
3     1     19    1
4     1     20    1
5     2     7     1
6     2     3     1
7     2     17    1
8     3     4     1
9     3     21    1
10    3     22    1
11    4     5     1
12    4     23    1
13    4     24    1
14    5     6     1
15    5     25    1
16    5     26    1
17    6     11    1
18    6     7     1
19    6     16    1
20    7     8     1
21    7     27    1
22    8     9     1
23    8     28    1
24    8     29    1
25    9     10    2
26    9     30    1
27    10    11    1
28    10    14    1
29    11    12    1
30    11    31    1
31    12    13    2
32    12    32    1
33    14    15    2
34    14    33    1
35    16    34    1
36    16    35    1
37    16    36    1
38    17    37    1
39    17    38    1
40    17    39    1
@<TRIPOS>SUBSTRUCTURE
1   LIG    1    
 
########## Number      : 494
########## Name        : ZINC00001970
########## Description : AM1BCC_CHARGES =   1.0000 ORIGINAL_CHARGES =   1.0000

@<TRIPOS>MOLECULE
ZINC00001970
19    19    1     0     0    
SMALL
USER_CHARGES
****
****
@<TRIPOS>ATOM
1     C1       6.6931   -9.2479   -1.3285 C.3     1  LIG  -0.0350   0.4880 
2     N1       5.3523   -9.4778   -0.7568 N.ar    1  LIG   0.0285  -0.2100 
3     C2       5.2393  -10.3720    0.2551 C.ar    1  LIG  -0.0273   0.2110 
4     C3       4.0151  -10.6458    0.8476 C.ar    1  LIG  -0.1392  -0.1500 
5     C4       2.8833   -9.9898    0.3937 C.ar    1  LIG  -0.0112  -0.1500 
6     C5       2.9959   -9.0734   -0.6427 C.ar    1  LIG  -0.1281  -0.1500 
7     C6       4.2484   -8.8249   -1.2138 C.ar    1  LIG   0.0094   0.4472 
8     C7       4.3746   -7.8519   -2.3157 C.2     1  LIG   0.3120   0.3038 
9     N2       3.3508   -7.2093   -2.7805 N.2     1  LIG  -0.3397  -0.5130 
10    O1       3.7794   -6.3670   -3.8102 O.3     1  LIG  -0.3030  -0.3370 
11    H1       2.9464   -5.9427   -4.0798 H       1  LIG   0.4803   0.4000 
12    H2       7.4350   -9.8691   -0.8204 H       1  LIG   0.0998   0.0000 
13    H3       6.6633   -9.5211   -2.3864 H       1  LIG   0.1012   0.0000 
14    H4       6.9492   -8.1953   -1.1830 H       1  LIG   0.1016   0.0000 
15    H5       6.1459  -10.8674    0.5856 H       1  LIG   0.2079   0.1500 
16    H6       3.9463  -11.3658    1.6572 H       1  LIG   0.2010   0.1500 
17    H7       1.9156  -10.1902    0.8444 H       1  LIG   0.1937   0.1500 
18    H8       2.1025   -8.5634   -0.9923 H       1  LIG   0.2079   0.1500 
19    H9       5.3711   -7.6724   -2.7501 H       1  LIG   0.0402   0.0600 
@<TRIPOS>BOND
1     1     2     1
2     1     12    1
3     1     13    1
4     1     14    1
5     2     7     ar
6     2     3     ar
7     3     4     ar
8     3     15    1
9     4     5     ar
10    4     16    1
11    5     6     ar
12    5     17    1
13    6     7     ar
14    6     18    1
15    7     8     1
16    8     9     2
17    8     19    1
18    9     10    1
19    10    11    1
@<TRIPOS>SUBSTRUCTURE
1   LIG    1    
 
########## Number      : 495
########## Name        : ZINC00001971
########## Description : AM1BCC_CHARGES =  -0.0002 ORIGINAL_CHARGES =   0.0000

@<TRIPOS>MOLECULE
ZINC00001971
40    43    1     0     0    
SMALL
USER_CHARGES
****
****
@<TRIPOS>ATOM
1     C1       7.1243  -10.9297    1.2312 C.ar    1  LIG  -0.1134  -0.1500 
2     C2       7.1728  -10.0960    0.1142 C.ar    1  LIG  -0.1397  -0.1500 
3     C3       6.4425   -8.9072    0.0956 C.ar    1  LIG  -0.0862  -0.1500 
4     C4       5.6683   -8.5482    1.2048 C.ar    1  LIG  -0.1457   0.0862 
5     C5       5.6090   -9.3919    2.3205 C.ar    1  LIG  -0.1050  -0.1500 
6     C6       6.3416  -10.5795    2.3312 C.ar    1  LIG  -0.1378  -0.1500 
7     C7       4.8786   -7.2825    1.1671 C.2     1  LIG   0.5362   0.2776 
8     N1       4.3007   -6.9812    0.0533 N.2     1  LIG  -0.5766  -0.6960 
9     C8       3.4766   -5.7884    0.0292 C.3     1  LIG   0.0370   0.3070 
10    C9       2.2201   -6.1227    0.7983 C.2     1  LIG   0.6952   0.5690 
11    O1       1.1801   -6.3702    0.1819 O.2     1  LIG  -0.6138  -0.5700 
12    N2       2.3200   -6.0935    2.1971 N.am    1  LIG  -0.3886  -0.4771 
13    C10      3.5698   -5.9462    2.8993 C.ar    1  LIG   0.0943   0.1170 
14    C11      4.7920   -6.4500    2.4039 C.ar    1  LIG  -0.2057   0.0862 
15    C12      5.9958   -6.2308    3.1001 C.ar    1  LIG  -0.0791  -0.1500 
16    C13      5.9882   -5.5530    4.3143 C.ar    1  LIG  -0.0078   0.1770 
17    C14      4.7929   -5.0887    4.8443 C.ar    1  LIG  -0.0933  -0.1500 
18    C15      3.5990   -5.2860    4.1434 C.ar    1  LIG  -0.1570  -0.1500 
19    Cl1      7.4618   -5.2990    5.1659 Cl      1  LIG  -0.0824  -0.1770 
20    C16      1.0789   -6.2641    2.9733 C.3     1  LIG   0.1134   0.3951 
21    C17      1.0592   -7.5919    3.6736 C.3     1  LIG  -0.1525  -0.1950 
22    C18      0.7934   -8.8569    2.9013 C.3     1  LIG  -0.1196  -0.2000 
23    C19     -0.2399   -8.3306    3.8567 C.3     1  LIG  -0.1256  -0.2000 
24    H1       7.6926  -11.8554    1.2423 H       1  LIG   0.1341   0.1500 
25    H2       7.7792  -10.3732   -0.7435 H       1  LIG   0.1361   0.1500 
26    H3       6.4931   -8.2685   -0.7824 H       1  LIG   0.1496   0.1500 
27    H4       4.9904   -9.1494    3.1803 H       1  LIG   0.1405   0.1500 
28    H5       6.2982  -11.2355    3.1961 H       1  LIG   0.1352   0.1500 
29    H6       3.9757   -4.8934    0.4163 H       1  LIG   0.0688   0.0000 
30    H7       3.2009   -5.5645   -1.0072 H       1  LIG   0.1070   0.0000 
31    H8       6.9394   -6.5949    2.6990 H       1  LIG   0.1628   0.1500 
32    H9       4.7712   -4.5598    5.7937 H       1  LIG   0.1528   0.1500 
33    H10      2.7011   -4.8680    4.5885 H       1  LIG   0.1483   0.1500 
34    H11      0.2151   -6.1874    2.3024 H       1  LIG   0.0919   0.0000 
35    H12      0.9551   -5.4435    3.6852 H       1  LIG   0.0430   0.0000 
36    H13      1.7686   -7.6437    4.4913 H       1  LIG   0.0822   0.1000 
37    H14      0.5819   -8.7847    1.8413 H       1  LIG   0.0832   0.1000 
38    H15      1.3427   -9.7455    3.1875 H       1  LIG   0.0719   0.1000 
39    H16     -0.3880   -8.8682    4.7855 H       1  LIG   0.0717   0.1000 
40    H17     -1.1444   -7.9079    3.4366 H       1  LIG   0.0744   0.1000 
@<TRIPOS>BOND
1     1     6     ar
2     1     2     ar
3     1     24    1
4     2     3     ar
5     2     25    1
6     3     4     ar
7     3     26    1
8     4     5     ar
9     4     7     1
10    5     6     ar
11    5     27    1
12    6     28    1
13    7     14    1
14    7     8     2
15    8     9     1
16    9     10    1
17    9     29    1
18    9     30    1
19    10    11    2
20    10    12    am
21    12    13    1
22    12    20    1
23    13    18    ar
24    13    14    ar
25    14    15    ar
26    15    16    ar
27    15    31    1
28    16    17    ar
29    16    19    1
30    17    18    ar
31    17    32    1
32    18    33    1
33    20    21    1
34    20    34    1
35    20    35    1
36    21    23    1
37    21    22    1
38    21    36    1
39    22    23    1
40    22    37    1
41    22    38    1
42    23    39    1
43    23    40    1
@<TRIPOS>SUBSTRUCTURE
1   LIG    1    
 
########## Number      : 496
########## Name        : ZINC00001974
########## Description : AM1BCC_CHARGES =  -0.0003 ORIGINAL_CHARGES =   0.0000

@<TRIPOS>MOLECULE
ZINC00001974
55    58    1     0     0    
SMALL
USER_CHARGES
****
****
@<TRIPOS>ATOM
1     C1       2.3695    0.3913  -12.0266 C.3     1  LIG  -0.0882   0.0000 
2     C2       1.9315   -1.0318  -11.6525 C.3     1  LIG  -0.0365   0.1382 
3     C3       0.9605   -1.0662  -10.4596 C.3     1  LIG  -0.0708   0.0000 
4     C4       1.5672   -1.5508   -9.1170 C.3     1  LIG  -0.0438   0.0000 
5     C5       0.7158   -1.0875   -7.9339 C.3     1  LIG  -0.0717   0.0000 
6     C6      -0.7549   -1.5121   -7.9127 C.3     1  LIG  -0.0728   0.0000 
7     C7      -1.1374   -1.4604   -6.4155 C.3     1  LIG  -0.0716   0.0000 
8     C8       0.1600   -1.0946   -5.6397 C.3     1  LIG  -0.1638   0.0610 
9     C9       1.2603   -1.5785   -6.5936 C.3     1  LIG  -0.0277   0.0000 
10    C10      2.6093   -0.8978   -6.3747 C.3     1  LIG  -0.1706   0.0610 
11    C11      3.5599   -1.1397   -7.5414 C.2     1  LIG   0.5777   0.4480 
12    O1       4.7638   -1.2492   -7.2979 O.2     1  LIG  -0.5398  -0.5700 
13    C12      3.0116   -0.9968   -8.9824 C.3     1  LIG  -0.1472   0.0610 
14    C13      3.9282   -1.7060  -10.0593 C.3     1  LIG  -0.0004   0.1382 
15    C14      3.1406   -1.9073  -11.3663 C.2     1  LIG  -0.0314  -0.2764 
16    C15      3.4133   -2.9055  -12.2273 C.2     1  LIG  -0.2586  -0.1356 
17    C16      4.4989   -3.8808  -11.9811 C.2     1  LIG   0.5675   0.4946 
18    O2       4.8026   -4.6855  -12.8602 O.2     1  LIG  -0.5391  -0.5700 
19    C17      5.2245   -3.8434  -10.6621 C.3     1  LIG  -0.1791   0.0610 
20    C18      4.4256   -3.1070   -9.5897 C.3     1  LIG  -0.0770   0.0000 
21    C19      5.1508   -0.7926  -10.3289 C.3     1  LIG  -0.0960   0.0000 
22    C20      1.4619   -3.1185   -6.5318 C.3     1  LIG  -0.0957   0.0000 
23    C21      0.2274   -1.7306   -4.2442 C.2     1  LIG   0.5764   0.4480 
24    O3       1.2985   -2.0019   -3.6987 O.2     1  LIG  -0.5320  -0.5700 
25    C22     -1.0627   -1.9023   -3.4807 C.3     1  LIG  -0.2023   0.0610 
26    H1       1.5086    0.9626  -12.3926 H       1  LIG   0.0379   0.0000 
27    H2       2.7832    0.9474  -11.1825 H       1  LIG   0.0363   0.0000 
28    H3       3.1182    0.3768  -12.8264 H       1  LIG   0.0458   0.0000 
29    H4       1.3863   -1.3849  -12.5454 H       1  LIG   0.0576   0.0000 
30    H5       0.5062   -0.0745  -10.3353 H       1  LIG   0.0458   0.0000 
31    H6       0.1272   -1.7372  -10.7098 H       1  LIG   0.0470   0.0000 
32    H7       1.5564   -2.6503   -9.1723 H       1  LIG   0.0674   0.0000 
33    H8       0.6941    0.0177   -7.9969 H       1  LIG   0.0474   0.0000 
34    H9      -1.3829   -0.8413   -8.5080 H       1  LIG   0.0473   0.0000 
35    H10     -0.8886   -2.5277   -8.3018 H       1  LIG   0.0502   0.0000 
36    H11     -1.9139   -0.7073   -6.2399 H       1  LIG   0.0456   0.0000 
37    H12     -1.5507   -2.4295   -6.1169 H       1  LIG   0.0485   0.0000 
38    H13      0.1444    0.0001   -5.4934 H       1  LIG   0.0742   0.0000 
39    H14      2.4935    0.1883   -6.2751 H       1  LIG   0.0667   0.0000 
40    H15      3.0879   -1.2625   -5.4591 H       1  LIG   0.0985   0.0000 
41    H16      2.9306    0.0865   -9.1890 H       1  LIG   0.0760   0.0000 
42    H17      2.8400   -3.0521  -13.1370 H       1  LIG   0.1471   0.1500 
43    H18      5.3927   -4.8751  -10.3334 H       1  LIG   0.0753   0.0000 
44    H19      6.2013   -3.3744  -10.8188 H       1  LIG   0.0767   0.0000 
45    H20      5.0653   -3.0466   -8.7058 H       1  LIG   0.0773   0.0000 
46    H21      3.5668   -3.7300   -9.3088 H       1  LIG   0.0438   0.0000 
47    H22      5.8559   -0.7985   -9.4920 H       1  LIG   0.0689   0.0000 
48    H23      5.7067   -1.1057  -11.2199 H       1  LIG   0.0421   0.0000 
49    H24      4.8540    0.2478  -10.4954 H       1  LIG   0.0349   0.0000 
50    H25      1.8697   -3.4390   -5.5685 H       1  LIG   0.0627   0.0000 
51    H26      0.5266   -3.6652   -6.6873 H       1  LIG   0.0371   0.0000 
52    H27      2.1731   -3.4774   -7.2809 H       1  LIG   0.0408   0.0000 
53    H28     -0.8391   -2.0870   -2.4257 H       1  LIG   0.0702   0.0000 
54    H29     -1.6588   -0.9887   -3.5474 H       1  LIG   0.0570   0.0000 
55    H30     -1.6208   -2.7554   -3.8715 H       1  LIG   0.0681   0.0000 
@<TRIPOS>BOND
1     1     2     1
2     1     26    1
3     1     27    1
4     1     28    1
5     2     15    1
6     2     3     1
7     2     29    1
8     3     4     1
9     3     30    1
10    3     31    1
11    4     13    1
12    4     5     1
13    4     32    1
14    5     9     1
15    5     6     1
16    5     33    1
17    6     7     1
18    6     34    1
19    6     35    1
20    7     8     1
21    7     36    1
22    7     37    1
23    8     9     1
24    8     23    1
25    8     38    1
26    9     10    1
27    9     22    1
28    10    11    1
29    10    39    1
30    10    40    1
31    11    12    2
32    11    13    1
33    13    14    1
34    13    41    1
35    14    20    1
36    14    15    1
37    14    21    1
38    15    16    2
39    16    17    1
40    16    42    1
41    17    18    2
42    17    19    1
43    19    20    1
44    19    43    1
45    19    44    1
46    20    45    1
47    20    46    1
48    21    47    1
49    21    48    1
50    21    49    1
51    22    50    1
52    22    51    1
53    22    52    1
54    23    24    2
55    23    25    1
56    25    53    1
57    25    54    1
58    25    55    1
@<TRIPOS>SUBSTRUCTURE
1   LIG    1    
 
########## Number      : 497
########## Name        : ZINC00001975
########## Description : AM1BCC_CHARGES =   0.0001 ORIGINAL_CHARGES =   0.0000

@<TRIPOS>MOLECULE
ZINC00001975
34    36    1     0     0    
SMALL
USER_CHARGES
****
****
@<TRIPOS>ATOM
1     C1      -5.8407    3.9609   -4.3897 C.3     1  LIG  -0.0416   0.1800 
2     C2      -5.7552    4.9897   -3.3134 C.2     1  LIG  -0.0464  -0.3316 
3     C3      -5.6037    4.8594   -1.9341 C.2     1  LIG  -0.2806  -0.0860 
4     C4      -5.7104    6.1730   -1.3873 C.2     1  LIG   0.0086   0.0630 
5     C5      -5.7586    7.0645   -2.4319 C.2     1  LIG  -0.2060  -0.3016 
6     N1      -5.8076    6.3405   -3.5923 N.pl3   1  LIG  -0.0473   0.0476 
7     C6      -5.8981    6.9297   -4.9103 C.3     1  LIG   0.0208   0.2556 
8     N2      -5.7002    6.5420   -0.0557 N.am    1  LIG  -0.4511  -0.4930 
9     C7      -5.9926    5.6864    0.9851 C.2     1  LIG   0.6900   0.5690 
10    O1      -5.7808    5.9899    2.1603 O.2     1  LIG  -0.6276  -0.5700 
11    C8      -6.7056    4.3997    0.6223 C.3     1  LIG   0.0504   0.3070 
12    N3      -5.7885    3.4486    0.0156 N.2     1  LIG  -0.5977  -0.6960 
13    C9      -5.3332    3.6410   -1.1752 C.2     1  LIG   0.5724   0.4498 
14    C10     -4.4357    2.6074   -1.7504 C.ar    1  LIG  -0.1366   0.0862 
15    C11     -4.7729    1.2569   -1.6055 C.ar    1  LIG  -0.0924  -0.1500 
16    C12     -3.9297    0.2727   -2.1221 C.ar    1  LIG  -0.1406  -0.1500 
17    C13     -2.7484    0.6332   -2.7704 C.ar    1  LIG  -0.1198  -0.1500 
18    C14     -2.4039    1.9787   -2.8993 C.ar    1  LIG  -0.1410  -0.1500 
19    C15     -3.2421    2.9689   -2.3858 C.ar    1  LIG  -0.1066  -0.1500 
20    H1      -5.4665    7.5052    0.1626 H       1  LIG   0.3256   0.3700 
21    H2      -6.1609    2.9938   -3.9911 H       1  LIG   0.0742   0.0000 
22    H3      -6.5737    4.2439   -5.1521 H       1  LIG   0.0456   0.0000 
23    H4      -4.8690    3.8341   -4.8765 H       1  LIG   0.0535   0.0000 
24    H5      -5.8022    8.1458   -2.4426 H       1  LIG   0.1740   0.1500 
25    H6      -5.7493    8.0103   -4.8396 H       1  LIG   0.0621   0.0000 
26    H7      -5.1192    6.4961   -5.5426 H       1  LIG   0.0547   0.0000 
27    H8      -6.8912    6.7171   -5.3137 H       1  LIG   0.0507   0.0000 
28    H9      -7.0980    3.9603    1.5465 H       1  LIG   0.1000   0.0000 
29    H10     -7.5769    4.6020   -0.0120 H       1  LIG   0.0655   0.0000 
30    H11     -5.6899    0.9604   -1.1031 H       1  LIG   0.1475   0.1500 
31    H12     -4.1927   -0.7761   -2.0177 H       1  LIG   0.1338   0.1500 
32    H13     -2.0930   -0.1354   -3.1703 H       1  LIG   0.1315   0.1500 
33    H14     -1.4783    2.2559   -3.3960 H       1  LIG   0.1321   0.1500 
34    H15     -2.9471    4.0103   -2.4806 H       1  LIG   0.1424   0.1500 
@<TRIPOS>BOND
1     1     2     1
2     1     21    1
3     1     22    1
4     1     23    1
5     2     6     1
6     2     3     2
7     3     13    1
8     3     4     1
9     4     5     2
10    4     8     1
11    5     6     1
12    5     24    1
13    6     7     1
14    7     25    1
15    7     26    1
16    7     27    1
17    8     9     am
18    8     20    1
19    9     10    2
20    9     11    1
21    11    12    1
22    11    28    1
23    11    29    1
24    12    13    2
25    13    14    1
26    14    19    ar
27    14    15    ar
28    15    16    ar
29    15    30    1
30    16    17    ar
31    16    31    1
32    17    18    ar
33    17    32    1
34    18    19    ar
35    18    33    1
36    19    34    1
@<TRIPOS>SUBSTRUCTURE
1   LIG    1    
 
########## Number      : 498
########## Name        : ZINC00001979
########## Description : AM1BCC_CHARGES =  -0.0001 ORIGINAL_CHARGES =   0.0000

@<TRIPOS>MOLECULE
ZINC00001979
30    31    1     0     0    
SMALL
USER_CHARGES
****
****
@<TRIPOS>ATOM
1     C1       5.0628   -4.7887    3.7031 C.3     1  LIG  -0.1031   0.0000 
2     C2       5.3874   -5.1817    2.2631 C.3     1  LIG  -0.0690   0.0000 
3     C3       4.1881   -5.1610    1.2612 C.3     1  LIG  -0.1117   0.2655 
4     C4       3.0652   -6.0401    1.8726 C.2     1  LIG   0.7019   0.5690 
5     O1       2.2008   -5.5874    2.6253 O.2     1  LIG  -0.6138  -0.5700 
6     N1       3.0998   -7.3774    1.5550 N.am    1  LIG  -0.5997  -0.7301 
7     C5       4.1676   -7.9674    0.8030 C.3     1  LIG   0.2765   0.6002 
8     N2       4.6462   -7.0977   -0.2314 N.am    1  LIG  -0.6019  -0.7301 
9     C6       4.7582   -5.7371   -0.0636 C.2     1  LIG   0.6985   0.5690 
10    O2       5.3143   -5.0342   -0.9093 O.2     1  LIG  -0.6109  -0.5700 
11    C7       3.6210   -3.7605    0.9341 C.ar    1  LIG  -0.0628  -0.1435 
12    C8       2.4205   -3.6589    0.1997 C.ar    1  LIG  -0.1018  -0.1500 
13    C9       1.8830   -2.4175   -0.1486 C.ar    1  LIG  -0.1265  -0.1500 
14    C10      2.5409   -1.2481    0.2157 C.ar    1  LIG  -0.1182  -0.1500 
15    C11      3.7388   -1.3225    0.9194 C.ar    1  LIG  -0.1319  -0.1500 
16    C12      4.2778   -2.5654    1.2683 C.ar    1  LIG  -0.0999  -0.1500 
17    H1       2.3937   -7.9805    1.9642 H       1  LIG   0.3337   0.3700 
18    H2       5.0338   -7.5045   -1.0763 H       1  LIG   0.3352   0.3700 
19    H3       5.9885   -4.7230    4.2847 H       1  LIG   0.0386   0.0000 
20    H4       4.5586   -3.8218    3.7696 H       1  LIG   0.0564   0.0000 
21    H5       4.4309   -5.5396    4.1870 H       1  LIG   0.0487   0.0000 
22    H6       5.8258   -6.1873    2.3003 H       1  LIG   0.0456   0.0000 
23    H7       6.1980   -4.5408    1.8928 H       1  LIG   0.0665   0.0000 
24    H8       4.9923   -8.2042    1.4810 H       1  LIG   0.0403   0.0000 
25    H9       3.8024   -8.8893    0.3425 H       1  LIG   0.0495   0.0000 
26    H10      1.8892   -4.5551   -0.1141 H       1  LIG   0.1297   0.1500 
27    H11      0.9535   -2.3672   -0.7084 H       1  LIG   0.1326   0.1500 
28    H12      2.1265   -0.2817   -0.0552 H       1  LIG   0.1315   0.1500 
29    H13      4.2625   -0.4110    1.1945 H       1  LIG   0.1318   0.1500 
30    H14      5.2244   -2.5667    1.7995 H       1  LIG   0.1341   0.1500 
@<TRIPOS>BOND
1     1     2     1
2     1     19    1
3     1     20    1
4     1     21    1
5     2     3     1
6     2     22    1
7     2     23    1
8     3     9     1
9     3     4     1
10    3     11    1
11    4     5     2
12    4     6     am
13    6     7     1
14    6     17    1
15    7     8     1
16    7     24    1
17    7     25    1
18    8     9     am
19    8     18    1
20    9     10    2
21    11    16    ar
22    11    12    ar
23    12    13    ar
24    12    26    1
25    13    14    ar
26    13    27    1
27    14    15    ar
28    14    28    1
29    15    16    ar
30    15    29    1
31    16    30    1
@<TRIPOS>SUBSTRUCTURE
1   LIG    1    
 
########## Number      : 499
########## Name        : ZINC00001982
########## Description : AM1BCC_CHARGES =  -1.0002 ORIGINAL_CHARGES =  -1.0000

@<TRIPOS>MOLECULE
ZINC00001982
37    37    1     0     0    
SMALL
USER_CHARGES
****
****
@<TRIPOS>ATOM
1     C1       3.6167   -9.1962   -1.8024 C.3     1  LIG  -0.0886   0.0000 
2     C2       3.7195   -8.2068   -0.6536 C.3     1  LIG  -0.1042   0.0000 
3     C3       5.0709   -7.4988   -0.6442 C.3     1  LIG   0.2306   0.3557 
4     N1       5.1021   -6.5367    0.4974 N.pl3   1  LIG  -0.8043  -0.8494 
5     C4       5.9430   -6.9939    1.6447 C.3     1  LIG   0.2267   0.3557 
6     C5       7.4349   -6.7623    1.4248 C.3     1  LIG  -0.1061   0.0000 
7     C6       8.2625   -7.4398    2.5067 C.3     1  LIG  -0.0915   0.0000 
8     S1       4.9923   -4.8676    0.1026 S.o2    1  LIG   1.5165   1.4470 
9     O1       6.3104   -4.3647   -0.2314 O.2     1  LIG  -0.6778  -0.6500 
10    O2       3.8909   -4.6697   -0.8217 O.2     1  LIG  -0.6769  -0.6500 
11    C7       4.4928   -4.1444    1.6356 C.ar    1  LIG  -0.4451  -0.0090 
12    C8       3.1988   -4.3770    2.0977 C.ar    1  LIG  -0.0327  -0.1500 
13    C9       2.7877   -3.8045    3.3030 C.ar    1  LIG  -0.1437  -0.1500 
14    C10      3.6577   -2.9939    4.0515 C.ar    1  LIG  -0.0479  -0.1790 
15    C11      4.9537   -2.7692    3.5563 C.ar    1  LIG  -0.1436  -0.1500 
16    C12      5.3732   -3.3378    2.3513 C.ar    1  LIG  -0.0413  -0.1500 
17    C13      3.2109   -2.3784    5.3557 C.2     1  LIG   0.9018   0.9790 
18    O3       4.0526   -1.6575    5.9778 O.co2   1  LIG  -0.8138  -0.9000 
19    H1       2.6412   -9.6922   -1.7894 H       1  LIG   0.0292   0.0000 
20    H2       3.7278   -8.6902   -2.7667 H       1  LIG   0.0350   0.0000 
21    H3       4.3907   -9.9666   -1.7269 H       1  LIG   0.0231   0.0000 
22    H4       2.9107   -7.4711   -0.7361 H       1  LIG   0.0614   0.0000 
23    H5       3.5684   -8.7359    0.2950 H       1  LIG   0.0401   0.0000 
24    H6       5.8829   -8.2296   -0.5596 H       1  LIG   0.0340   0.0000 
25    H7       5.2311   -6.9684   -1.5899 H       1  LIG   0.0541   0.0000 
26    H8       5.6092   -6.4949    2.5606 H       1  LIG   0.0672   0.0000 
27    H9       5.7471   -8.0616    1.8070 H       1  LIG   0.0375   0.0000 
28    H10      7.7470   -7.1404    0.4451 H       1  LIG   0.0356   0.0000 
29    H11      7.6596   -5.6914    1.4409 H       1  LIG   0.0573   0.0000 
30    H12      9.3280   -7.2504    2.3429 H       1  LIG   0.0275   0.0000 
31    H13      7.9980   -7.0592    3.4984 H       1  LIG   0.0428   0.0000 
32    H14      8.1058   -8.5232    2.5002 H       1  LIG   0.0257   0.0000 
33    H15      2.5058   -5.0011    1.5405 H       1  LIG   0.1256   0.1500 
34    H16      1.7762   -3.9999    3.6520 H       1  LIG   0.1628   0.1500 
35    H17      5.6546   -2.1451    4.1064 H       1  LIG   0.1628   0.1500 
36    H18      6.3816   -3.1425    1.9996 H       1  LIG   0.1344   0.1500 
37    O4       2.0249   -2.6250    5.7399 O.co2   1  LIG  -0.8144  -0.9000 
@<TRIPOS>BOND
1     1     2     1
2     1     19    1
3     1     20    1
4     1     21    1
5     2     3     1
6     2     22    1
7     2     23    1
8     3     4     1
9     3     24    1
10    3     25    1
11    4     5     1
12    4     8     1
13    5     6     1
14    5     26    1
15    5     27    1
16    6     7     1
17    6     28    1
18    6     29    1
19    7     30    1
20    7     31    1
21    7     32    1
22    8     9     2
23    8     10    2
24    8     11    1
25    11    16    ar
26    11    12    ar
27    12    13    ar
28    12    33    1
29    13    14    ar
30    13    34    1
31    14    15    ar
32    14    17    1
33    15    16    ar
34    15    35    1
35    16    36    1
36    17    18    2
37    17    37    1
@<TRIPOS>SUBSTRUCTURE
1   LIG    1    
 
########## Number      : 500
########## Name        : ZINC00001984
########## Description : AM1BCC_CHARGES =  -1.0004 ORIGINAL_CHARGES =  -1.0000

@<TRIPOS>MOLECULE
ZINC00001984
36    37    1     0     0    
SMALL
USER_CHARGES
****
****
@<TRIPOS>ATOM
1     C1       4.5587    2.3640    0.8625 C.3     1  LIG  -0.0975   0.0000 
2     C2       3.5663    2.3809    2.0312 C.3     1  LIG   0.0183   0.1740 
3     C3       2.9732    0.9821    2.2490 C.3     1  LIG  -0.1046   0.0000 
4     C4       4.3024    2.7392    3.3641 C.2     1  LIG   0.9413   0.9060 
5     O1       5.4955    3.1427    3.2549 O.co2   1  LIG  -0.8170  -0.9000 
6     O2       2.5619    3.4087    1.8900 O.3     1  LIG  -0.3262  -0.3625 
7     C5       1.7219    3.2992    0.8170 C.ar    1  LIG   0.1764   0.0825 
8     C6       2.0224    3.9772   -0.3649 C.ar    1  LIG  -0.1744  -0.1500 
9     C7       1.1377    3.9249   -1.4429 C.ar    1  LIG  -0.0876  -0.1500 
10    C8      -0.0572    3.2060   -1.3273 C.ar    1  LIG  -0.2170   0.0862 
11    C9      -0.3826    2.5758   -0.1212 C.ar    1  LIG  -0.0703  -0.1500 
12    C10      0.5055    2.6304    0.9536 C.ar    1  LIG  -0.1716  -0.1500 
13    C11     -1.0266    3.1478   -2.4453 C.2     1  LIG   0.5961   0.3976 
14    O3      -2.2285    3.1813   -2.1994 O.2     1  LIG  -0.5491  -0.5700 
15    C12     -0.5796    3.0488   -3.8541 C.ar    1  LIG  -0.1556   0.0862 
16    C13      0.5362    2.2819   -4.2087 C.ar    1  LIG  -0.0806  -0.1500 
17    C14      0.9199    2.1908   -5.5480 C.ar    1  LIG  -0.1396  -0.1500 
18    C15      0.1829    2.8566   -6.5276 C.ar    1  LIG   0.0316   0.1770 
19    C16     -0.9391    3.6093   -6.1811 C.ar    1  LIG  -0.1431  -0.1500 
20    C17     -1.3248    3.7014   -4.8429 C.ar    1  LIG  -0.0785  -0.1500 
21    Cl1      0.6579    2.7421   -8.1789 Cl      1  LIG  -0.1075  -0.1770 
22    H1       4.9442    3.3687    0.6552 H       1  LIG   0.0546   0.0000 
23    H2       5.4098    1.7037    1.0641 H       1  LIG   0.0448   0.0000 
24    H3       4.0862    2.0080   -0.0595 H       1  LIG  -0.0061   0.0000 
25    H4       2.1663    0.9930    2.9903 H       1  LIG   0.0628   0.0000 
26    H5       2.5434    0.5848    1.3227 H       1  LIG  -0.0012   0.0000 
27    H6       3.7366    0.2713    2.5857 H       1  LIG   0.0367   0.0000 
28    H7       2.9405    4.5517   -0.4510 H       1  LIG   0.1518   0.1500 
29    H8       1.3872    4.4652   -2.3518 H       1  LIG   0.1251   0.1500 
30    H9      -1.3215    2.0403   -0.0060 H       1  LIG   0.1365   0.1500 
31    H10      0.2410    2.1535    1.8931 H       1  LIG   0.1560   0.1500 
32    H11      1.1094    1.7389   -3.4621 H       1  LIG   0.1587   0.1500 
33    H12      1.7890    1.5948   -5.8140 H       1  LIG   0.1482   0.1500 
34    H13     -1.5204    4.1255   -6.9405 H       1  LIG   0.1439   0.1500 
35    H14     -2.2015    4.2897   -4.5835 H       1  LIG   0.1528   0.1500 
36    O4       3.6112    2.6055    4.4172 O.co2   1  LIG  -0.8085  -0.9000 
@<TRIPOS>BOND
1     1     2     1
2     1     22    1
3     1     23    1
4     1     24    1
5     2     3     1
6     2     4     1
7     2     6     1
8     3     25    1
9     3     26    1
10    3     27    1
11    4     5     2
12    4     36    1
13    6     7     1
14    7     12    ar
15    7     8     ar
16    8     9     ar
17    8     28    1
18    9     10    ar
19    9     29    1
20    10    11    ar
21    10    13    1
22    11    12    ar
23    11    30    1
24    12    31    1
25    13    14    2
26    13    15    1
27    15    20    ar
28    15    16    ar
29    16    17    ar
30    16    32    1
31    17    18    ar
32    17    33    1
33    18    19    ar
34    18    21    1
35    19    20    ar
36    19    34    1
37    20    35    1
@<TRIPOS>SUBSTRUCTURE
1   LIG    1    
 
########## Number      : 501
########## Name        : ZINC00001987
########## Description : AM1BCC_CHARGES =   2.0000 ORIGINAL_CHARGES =   2.0000

@<TRIPOS>MOLECULE
ZINC00001987
36    35    1     0     0    
SMALL
USER_CHARGES
****
****
@<TRIPOS>ATOM
1     C1       3.2694  -11.1258   -0.3970 C.3     1  LIG   0.0884   0.5030 
2     N1       3.4910   -9.7135    0.1642 N.4     1  LIG  -0.6008  -1.0120 
3     C2       3.0696   -9.7216    1.6274 C.3     1  LIG   0.0896   0.5030 
4     C3       4.9799   -9.3977    0.0620 C.3     1  LIG   0.0821   0.5030 
5     C4       2.6437   -8.7402   -0.6906 C.3     1  LIG   0.0891   0.5030 
6     C5       2.6859   -7.2692   -0.2313 C.3     1  LIG   0.1246   0.2800 
7     C6       2.1361   -6.3802   -1.3645 C.3     1  LIG   0.0912   0.5030 
8     N2       2.4496   -4.8714   -1.2184 N.4     1  LIG  -0.6008  -1.0120 
9     C7       1.7687   -4.1478   -2.3895 C.3     1  LIG   0.0882   0.5030 
10    C8       1.9004   -4.2849    0.0751 C.3     1  LIG   0.0916   0.5030 
11    C9       3.9480   -4.5996   -1.3081 C.3     1  LIG   0.0821   0.5030 
12    O1       1.8218   -7.1328    0.8971 O.3     1  LIG  -0.5924  -0.6800 
13    H1       2.3537   -6.8054    1.6429 H       1  LIG   0.4419   0.4000 
14    H2       3.5791  -11.1325   -1.4463 H       1  LIG   0.1075   0.0000 
15    H3       3.8730  -11.8304    0.1830 H       1  LIG   0.1213   0.0000 
16    H4       2.2067  -11.3698   -0.3065 H       1  LIG   0.1131   0.0000 
17    H5       3.3658   -8.7757    2.0864 H       1  LIG   0.0851   0.0000 
18    H6       1.9866   -9.8647    1.6763 H       1  LIG   0.1193   0.0000 
19    H7       3.5858  -10.5446    2.1315 H       1  LIG   0.1219   0.0000 
20    H8       5.1777   -8.4431    0.5544 H       1  LIG   0.0872   0.0000 
21    H9       5.5369  -10.1929    0.5670 H       1  LIG   0.1254   0.0000 
22    H10      5.2530   -9.3529   -0.9961 H       1  LIG   0.1087   0.0000 
23    H11      3.0277   -8.8387   -1.7127 H       1  LIG   0.1090   0.0000 
24    H12      1.6153   -9.1209   -0.6585 H       1  LIG   0.1269   0.0000 
25    H13      3.6972   -6.9719    0.0479 H       1  LIG   0.0761   0.0000 
26    H14      2.5624   -6.6751   -2.3305 H       1  LIG   0.1088   0.0000 
27    H15      1.0434   -6.4616   -1.4179 H       1  LIG   0.1269   0.0000 
28    H16      1.9909   -3.0790   -2.3159 H       1  LIG   0.1214   0.0000 
29    H17      2.1648   -4.5558   -3.3242 H       1  LIG   0.1072   0.0000 
30    H18      0.6903   -4.3186   -2.3199 H       1  LIG   0.1130   0.0000 
31    H19      2.0055   -3.1963    0.0333 H       1  LIG   0.1210   0.0000 
32    H20      0.8463   -4.5625    0.1623 H       1  LIG   0.1185   0.0000 
33    H21      2.4830   -4.6711    0.9144 H       1  LIG   0.0862   0.0000 
34    H22      4.1010   -3.5164   -1.3394 H       1  LIG   0.1255   0.0000 
35    H23      4.4400   -5.0131   -0.4250 H       1  LIG   0.0870   0.0000 
36    H24      4.3310   -5.0659   -2.2202 H       1  LIG   0.1082   0.0000 
@<TRIPOS>BOND
1     1     2     1
2     1     14    1
3     1     15    1
4     1     16    1
5     2     3     1
6     2     4     1
7     2     5     1
8     3     17    1
9     3     18    1
10    3     19    1
11    4     20    1
12    4     21    1
13    4     22    1
14    5     6     1
15    5     23    1
16    5     24    1
17    6     7     1
18    6     12    1
19    6     25    1
20    7     8     1
21    7     26    1
22    7     27    1
23    8     9     1
24    8     10    1
25    8     11    1
26    9     28    1
27    9     29    1
28    9     30    1
29    10    31    1
30    10    32    1
31    10    33    1
32    11    34    1
33    11    35    1
34    11    36    1
35    12    13    1
@<TRIPOS>SUBSTRUCTURE
1   LIG    1    
 
########## Number      : 502
########## Name        : ZINC00001994
########## Description : AM1BCC_CHARGES =  -0.0000 ORIGINAL_CHARGES =  -0.0000

@<TRIPOS>MOLECULE
ZINC00001994
21    21    1     0     0    
SMALL
USER_CHARGES
****
****
@<TRIPOS>ATOM
1     C1       1.3904   -7.5706   -2.0547 C.3     1  LIG  -0.0968   0.0000 
2     C2       1.5180   -6.1477   -1.5302 C.3     1  LIG  -0.0797   0.0000 
3     C3       2.7573   -5.4503   -2.1032 C.3     1  LIG  -0.0582   0.1382 
4     C4       3.0023   -4.0244   -1.6602 C.2     1  LIG   0.0923  -0.0292 
5     C5       2.2276   -3.3287   -0.8132 C.2     1  LIG  -0.3081  -0.1356 
6     C6       2.5779   -1.9318   -0.4570 C.2     1  LIG   0.7031   0.6156 
7     O1       1.8769   -1.2862    0.3163 O.2     1  LIG  -0.5997  -0.5700 
8     N1       3.7239   -1.4427   -1.0542 N.am    1  LIG  -0.5410  -0.4900 
9     C7       4.5250   -2.1515   -1.9254 C.2     1  LIG   0.5524   0.5000 
10    S1       5.8961   -1.4840   -2.6044 S.2     1  LIG  -0.5045  -0.3800 
11    N2       4.1282   -3.4384   -2.2013 N.pl3   1  LIG  -0.4311  -0.5390 
12    H1       3.9939   -0.4900   -0.8332 H       1  LIG   0.3637   0.3700 
13    H2       4.6961   -3.9884   -2.8395 H       1  LIG   0.3619   0.3700 
14    H3       0.5010   -8.0506   -1.6346 H       1  LIG   0.0455   0.0000 
15    H4       1.2982   -7.5800   -3.1454 H       1  LIG   0.0373   0.0000 
16    H5       2.2630   -8.1707   -1.7777 H       1  LIG   0.0373   0.0000 
17    H6       0.6128   -5.5905   -1.7989 H       1  LIG   0.0532   0.0000 
18    H7       1.5745   -6.1793   -0.4356 H       1  LIG   0.0533   0.0000 
19    H8       3.6422   -6.0459   -1.8414 H       1  LIG   0.0684   0.0000 
20    H9       2.6845   -5.4595   -3.1991 H       1  LIG   0.0687   0.0000 
21    H10      1.3329   -3.7334   -0.3568 H       1  LIG   0.1820   0.1500 
@<TRIPOS>BOND
1     1     2     1
2     1     14    1
3     1     15    1
4     1     16    1
5     2     3     1
6     2     17    1
7     2     18    1
8     3     4     1
9     3     19    1
10    3     20    1
11    4     11    1
12    4     5     2
13    5     6     1
14    5     21    1
15    6     7     2
16    6     8     am
17    8     9     1
18    8     12    1
19    9     10    2
20    9     11    1
21    11    13    1
@<TRIPOS>SUBSTRUCTURE
1   LIG    1    
 
########## Number      : 503
########## Name        : ZINC00002002
########## Description : AM1BCC_CHARGES =   1.0001 ORIGINAL_CHARGES =   1.0000

@<TRIPOS>MOLECULE
ZINC00002002
45    46    1     0     0    
SMALL
USER_CHARGES
****
****
@<TRIPOS>ATOM
1     C1       8.1501   -9.1615    1.1695 C.3     1  LIG   0.0825   0.5030 
2     C2       7.2538  -10.2901    3.1872 C.3     1  LIG   0.0812   0.5030 
3     C3       6.2778   -8.0888    2.4234 C.3     1  LIG   0.0563   0.5030 
4     C4       4.8255   -8.3024    2.8499 C.3     1  LIG   0.2293   0.3691 
5     N1       4.2125   -7.0318    3.2543 N.pl3   1  LIG  -0.8049  -0.8382 
6     C5       3.4420   -6.2908    2.2449 C.3     1  LIG   0.2867   0.5126 
7     C6       3.8014   -4.8226    2.1634 C.ar    1  LIG  -0.1475  -0.1435 
8     C7       5.1185   -4.4048    1.9344 C.ar    1  LIG  -0.0837  -0.1500 
9     C8       5.4362   -3.0447    1.8472 C.ar    1  LIG  -0.2106  -0.1500 
10    C9       4.4370   -2.0798    1.9809 C.ar    1  LIG   0.1471   0.0825 
11    C10      3.1194   -2.4908    2.1989 C.ar    1  LIG  -0.1533  -0.1500 
12    C11      2.8027   -3.8484    2.2857 C.ar    1  LIG  -0.0605  -0.1500 
13    O1       4.6164   -0.7239    1.9163 O.3     1  LIG  -0.3172  -0.3625 
14    C12      5.9450   -0.2624    1.7024 C.3     1  LIG   0.1108   0.2800 
15    C13      4.0701   -6.6938    4.6038 C.ar    1  LIG   0.6513   0.4100 
16    C14      4.9136   -7.2299    5.5849 C.ar    1  LIG  -0.3115  -0.1500 
17    C15      4.7564   -6.8700    6.9248 C.ar    1  LIG  -0.0563  -0.1500 
18    C16      3.7636   -5.9765    7.2852 C.ar    1  LIG  -0.2649  -0.1500 
19    C17      2.9676   -5.4779    6.2768 C.ar    1  LIG   0.4442   0.1600 
20    N2       3.1011   -5.8128    4.9726 N.ar    1  LIG  -0.6919  -0.6200 
21    H1       7.8456   -8.5947    0.2857 H       1  LIG   0.1067   0.0000 
22    H2       8.8819   -8.6055    1.7617 H       1  LIG   0.1077   0.0000 
23    H3       8.5467  -10.1337    0.8649 H       1  LIG   0.1046   0.0000 
24    H4       6.3258  -10.5506    3.6991 H       1  LIG   0.1062   0.0000 
25    H5       7.7207  -11.1998    2.7998 H       1  LIG   0.1042   0.0000 
26    H6       7.9357   -9.7557    3.8539 H       1  LIG   0.1066   0.0000 
27    H7       6.8936   -7.6405    3.2103 H       1  LIG   0.1135   0.0000 
28    H8       6.3079   -7.4367    1.5439 H       1  LIG   0.1090   0.0000 
29    H9       4.2651   -8.7262    2.0060 H       1  LIG   0.0553   0.0000 
30    H10      4.7344   -9.0504    3.6443 H       1  LIG   0.0663   0.0000 
31    H11      3.6161   -6.7130    1.2463 H       1  LIG   0.0349   0.0000 
32    H12      2.3696   -6.4235    2.4384 H       1  LIG   0.0704   0.0000 
33    H13      5.9158   -5.1332    1.8231 H       1  LIG   0.1013   0.1500 
34    H14      6.4734   -2.7761    1.6731 H       1  LIG   0.1395   0.1500 
35    H15      2.3274   -1.7530    2.3033 H       1  LIG   0.1614   0.1500 
36    H16      1.7688   -4.1379    2.4572 H       1  LIG   0.1471   0.1500 
37    H17      5.9190    0.8314    1.6810 H       1  LIG   0.0793   0.0000 
38    H18      6.6047   -0.5635    2.5229 H       1  LIG   0.0348   0.0000 
39    H19      6.3311   -0.6049    0.7367 H       1  LIG   0.0346   0.0000 
40    H20      5.7141   -7.9197    5.3387 H       1  LIG   0.1115   0.1500 
41    H21      5.4154   -7.2879    7.6803 H       1  LIG   0.1447   0.1500 
42    H22      3.6200   -5.6785    8.3168 H       1  LIG   0.1608   0.1500 
43    H23      2.1727   -4.7708    6.4904 H       1  LIG   0.0387   0.1500 
44    N3       6.9270   -9.3986    2.0182 N.4     1  LIG  -0.6750  -0.9590 
45    H24      6.2592   -9.9079    1.4233 H       1  LIG   0.4489   0.4500 
@<TRIPOS>BOND
1     1     21    1
2     1     22    1
3     1     23    1
4     1     44    1
5     2     24    1
6     2     25    1
7     2     26    1
8     2     44    1
9     3     4     1
10    3     27    1
11    3     28    1
12    3     44    1
13    4     5     1
14    4     29    1
15    4     30    1
16    5     6     1
17    5     15    1
18    6     7     1
19    6     31    1
20    6     32    1
21    7     12    ar
22    7     8     ar
23    8     9     ar
24    8     33    1
25    9     10    ar
26    9     34    1
27    10    11    ar
28    10    13    1
29    11    12    ar
30    11    35    1
31    12    36    1
32    13    14    1
33    14    37    1
34    14    38    1
35    14    39    1
36    15    20    ar
37    15    16    ar
38    16    17    ar
39    16    40    1
40    17    18    ar
41    17    41    1
42    18    19    ar
43    18    42    1
44    19    20    ar
45    19    43    1
46    44    45    1
@<TRIPOS>SUBSTRUCTURE
1   LIG    1    
 
########## Number      : 504
########## Name        : ZINC00002003
########## Description : AM1BCC_CHARGES =   0.9998 ORIGINAL_CHARGES =   1.0000

@<TRIPOS>MOLECULE
ZINC00002003
45    46    1     0     0    
SMALL
USER_CHARGES
****
****
@<TRIPOS>ATOM
1     C1       8.6819   -6.7093    1.4341 C.3     1  LIG   0.0830   0.5030 
2     C2       8.2304   -9.0482    2.1292 C.3     1  LIG   0.0827   0.5030 
3     C3       6.5774   -7.2179    2.6729 C.3     1  LIG   0.0516   0.5030 
4     C4       5.3088   -8.0768    2.6373 C.3     1  LIG   0.2214   0.3691 
5     N1       4.2252   -7.4603    3.4205 N.pl3   1  LIG  -0.7659  -0.8382 
6     C5       3.1216   -6.8379    2.6821 C.3     1  LIG   0.2537   0.5126 
7     C6       3.5122   -5.4937    2.1139 C.ar    1  LIG  -0.1907  -0.1435 
8     C7       3.7992   -5.3582    0.7497 C.ar    1  LIG  -0.1076  -0.1500 
9     C8       4.1823   -4.1222    0.2244 C.ar    1  LIG  -0.1661  -0.1500 
10    C9       4.2848   -2.9990    1.0495 C.ar    1  LIG   0.1454   0.0825 
11    C10      3.9976   -3.1261    2.4093 C.ar    1  LIG  -0.2042  -0.1500 
12    C11      3.6142   -4.3645    2.9357 C.ar    1  LIG  -0.0759  -0.1500 
13    O1       4.6713   -1.8492    0.4146 O.3     1  LIG  -0.3202  -0.3625 
14    C12      4.7790   -0.6790    1.2167 C.3     1  LIG   0.1086   0.2800 
15    C13      4.2880   -7.5485    4.8112 C.ar    1  LIG   0.6378   0.4100 
16    C14      3.3386   -6.9505    5.6469 C.ar    1  LIG  -0.2829  -0.1500 
17    C15      3.4421   -7.0658    7.0359 C.ar    1  LIG  -0.0520  -0.1500 
18    C16      4.4891   -7.7764    7.5934 C.ar    1  LIG  -0.2661  -0.1500 
19    C17      5.3948   -8.3435    6.7252 C.ar    1  LIG   0.4365   0.1600 
20    N2       5.3146   -8.2434    5.3777 N.ar    1  LIG  -0.7631  -0.6200 
21    H1       8.1953   -5.8138    1.0384 H       1  LIG   0.1066   0.0000 
22    H2       9.2001   -6.4943    2.3725 H       1  LIG   0.1064   0.0000 
23    H3       9.3706   -7.1146    0.6881 H       1  LIG   0.1008   0.0000 
24    H4       7.4456   -9.8062    2.1647 H       1  LIG   0.1082   0.0000 
25    H5       8.9760   -9.3351    1.3827 H       1  LIG   0.0980   0.0000 
26    H6       8.6936   -8.9112    3.1099 H       1  LIG   0.1104   0.0000 
27    H7       7.0437   -7.1840    3.6629 H       1  LIG   0.1231   0.0000 
28    H8       6.3494   -6.1922    2.3657 H       1  LIG   0.1113   0.0000 
29    H9       4.9879   -8.1973    1.5947 H       1  LIG   0.0552   0.0000 
30    H10      5.5012   -9.0937    2.9991 H       1  LIG   0.0837   0.0000 
31    H11      2.8276   -7.5065    1.8615 H       1  LIG   0.0643   0.0000 
32    H12      2.2026   -6.7355    3.2681 H       1  LIG   0.0871   0.0000 
33    H13      3.7309   -6.2148    0.0836 H       1  LIG   0.1303   0.1500 
34    H14      4.4013   -4.0408   -0.8377 H       1  LIG   0.1602   0.1500 
35    H15      4.0621   -2.2834    3.0906 H       1  LIG   0.1530   0.1500 
36    H16      3.3981   -4.4346    3.9982 H       1  LIG   0.1432   0.1500 
37    H17      5.0898    0.1441    0.5661 H       1  LIG   0.0831   0.0000 
38    H18      3.8122   -0.4101    1.6548 H       1  LIG   0.0470   0.0000 
39    H19      5.5453   -0.7996    1.9896 H       1  LIG   0.0347   0.0000 
40    H20      2.5032   -6.3769    5.2623 H       1  LIG   0.1506   0.1500 
41    H21      2.7000   -6.5960    7.6751 H       1  LIG   0.1541   0.1500 
42    H22      4.5923   -7.8815    8.6666 H       1  LIG   0.1614   0.1500 
43    H23      6.2404   -8.9144    7.0945 H       1  LIG   0.0270   0.1500 
44    N3       7.6175   -7.7423    1.6996 N.4     1  LIG  -0.6704  -0.9590 
45    H24      7.1464   -7.9070    0.7998 H       1  LIG   0.4445   0.4500 
@<TRIPOS>BOND
1     1     21    1
2     1     22    1
3     1     23    1
4     1     44    1
5     2     24    1
6     2     25    1
7     2     26    1
8     2     44    1
9     3     4     1
10    3     27    1
11    3     28    1
12    3     44    1
13    4     5     1
14    4     29    1
15    4     30    1
16    5     6     1
17    5     15    1
18    6     7     1
19    6     31    1
20    6     32    1
21    7     12    ar
22    7     8     ar
23    8     9     ar
24    8     33    1
25    9     10    ar
26    9     34    1
27    10    11    ar
28    10    13    1
29    11    12    ar
30    11    35    1
31    12    36    1
32    13    14    1
33    14    37    1
34    14    38    1
35    14    39    1
36    15    20    ar
37    15    16    ar
38    16    17    ar
39    16    40    1
40    17    18    ar
41    17    41    1
42    18    19    ar
43    18    42    1
44    19    20    ar
45    19    43    1
46    44    45    1
@<TRIPOS>SUBSTRUCTURE
1   LIG    1    
 
########## Number      : 505
########## Name        : ZINC00002004
########## Description : AM1BCC_CHARGES =   1.0003 ORIGINAL_CHARGES =   1.0000

@<TRIPOS>MOLECULE
ZINC00002004
42    45    1     0     0    
SMALL
USER_CHARGES
****
****
@<TRIPOS>ATOM
1     C1       6.5774   -8.5145    1.4560 C.ar    1  LIG  -0.0965  -0.1500 
2     C2       5.8511   -8.9735    0.3717 C.ar    1  LIG  -0.1249  -0.1500 
3     C3       4.6335   -8.3768    0.0716 C.ar    1  LIG  -0.0784  -0.1500 
4     C4       4.1323   -7.3149    0.8516 C.ar    1  LIG  -0.0172   0.1015 
5     C5       4.8470   -6.8279    1.9640 C.ar    1  LIG   0.0587   0.1000 
6     C6       6.0826   -7.4621    2.2345 C.ar    1  LIG  -0.1835  -0.1500 
7     N1       4.3528   -5.7468    2.7519 N.pl3   1  LIG  -0.1804  -0.5691 
8     C7       3.2535   -4.9043    2.4106 C.ar    1  LIG   0.0581   0.1000 
9     C8       2.9716   -3.7041    3.1058 C.ar    1  LIG  -0.1854  -0.1500 
10    C9       1.9015   -2.8687    2.7661 C.ar    1  LIG  -0.0963  -0.1500 
11    C10      1.0700   -3.2036    1.7123 C.ar    1  LIG  -0.1249  -0.1500 
12    C11      1.3142   -4.3723    1.0029 C.ar    1  LIG  -0.0783  -0.1500 
13    C12      2.3922   -5.2158    1.3398 C.ar    1  LIG  -0.0169   0.1015 
14    S1       2.5479   -6.6855    0.3558 S.3     1  LIG  -0.1033  -0.2030 
15    C13      5.0256   -5.4897    4.0486 C.3     1  LIG   0.0502   0.3691 
16    C14      6.1846   -4.4961    3.8926 C.3     1  LIG   0.0499   0.5030 
17    C15      7.6971   -2.9619    5.2081 C.3     1  LIG   0.1118   0.5030 
18    C16      8.5815   -3.1832    6.4148 C.3     1  LIG  -0.1026   0.0000 
19    C17      8.8485   -4.6732    6.3575 C.3     1  LIG  -0.1017   0.0000 
20    C18      7.5236   -5.2836    5.9301 C.3     1  LIG   0.1102   0.5030 
21    H1       7.5331   -8.9684    1.7029 H       1  LIG   0.1420   0.1500 
22    H2       6.2271   -9.7900   -0.2371 H       1  LIG   0.1544   0.1500 
23    H3       4.0724   -8.7520   -0.7826 H       1  LIG   0.1589   0.1500 
24    H4       6.7182   -7.1531    3.0581 H       1  LIG   0.1037   0.1500 
25    H5       3.5844   -3.3630    3.9346 H       1  LIG   0.1026   0.1500 
26    H6       1.7265   -1.9561    3.3291 H       1  LIG   0.1422   0.1500 
27    H7       0.2372   -2.5616    1.4425 H       1  LIG   0.1545   0.1500 
28    H8       0.6490   -4.6231    0.1783 H       1  LIG   0.1589   0.1500 
29    H9       5.3697   -6.4276    4.5018 H       1  LIG   0.0743   0.0000 
30    H10      4.3078   -5.1297    4.7971 H       1  LIG   0.0710   0.0000 
31    H11      5.8421   -3.5522    3.4566 H       1  LIG   0.1118   0.0000 
32    H12      6.9966   -4.8811    3.2676 H       1  LIG   0.1120   0.0000 
33    H13      8.2664   -3.0001    4.2729 H       1  LIG   0.1083   0.0000 
34    H14      7.0936   -2.0519    5.2619 H       1  LIG   0.1060   0.0000 
35    H15      9.4998   -2.5909    6.3726 H       1  LIG   0.1021   0.0000 
36    H16      8.0469   -2.9251    7.3366 H       1  LIG   0.0885   0.0000 
37    H17      9.6165   -4.8888    5.6047 H       1  LIG   0.0951   0.0000 
38    H18      9.1986   -5.0744    7.3130 H       1  LIG   0.0943   0.0000 
39    H19      6.9129   -5.5940    6.7833 H       1  LIG   0.1039   0.0000 
40    H20      7.6616   -6.1175    5.2361 H       1  LIG   0.1061   0.0000 
41    N2       6.7691   -4.1582    5.2410 N.4     1  LIG  -0.6838  -0.9590 
42    H21      5.9900   -3.8960    5.8611 H       1  LIG   0.4449   0.4500 
@<TRIPOS>BOND
1     1     6     ar
2     1     2     ar
3     1     21    1
4     2     3     ar
5     2     22    1
6     3     4     ar
7     3     23    1
8     4     14    1
9     4     5     ar
10    5     6     ar
11    5     7     1
12    6     24    1
13    7     8     1
14    7     15    1
15    8     13    ar
16    8     9     ar
17    9     10    ar
18    9     25    1
19    10    11    ar
20    10    26    1
21    11    12    ar
22    11    27    1
23    12    13    ar
24    12    28    1
25    13    14    1
26    15    16    1
27    15    29    1
28    15    30    1
29    16    31    1
30    16    32    1
31    16    41    1
32    17    18    1
33    17    33    1
34    17    34    1
35    17    41    1
36    18    19    1
37    18    35    1
38    18    36    1
39    19    20    1
40    19    37    1
41    19    38    1
42    20    39    1
43    20    40    1
44    20    41    1
45    41    42    1
@<TRIPOS>SUBSTRUCTURE
1   LIG    1    
 
########## Number      : 506
########## Name        : ZINC00002005
########## Description : AM1BCC_CHARGES =   0.0001 ORIGINAL_CHARGES =   0.0000

@<TRIPOS>MOLECULE
ZINC00002005
14    14    1     0     0    
SMALL
USER_CHARGES
****
****
@<TRIPOS>ATOM
1     C1      -0.3679    3.0196    0.3047 C.ar    1  LIG   0.3039   0.1600 
2     C2      -1.0079    3.5779    1.3912 C.ar    1  LIG   0.2749   0.1600 
3     N1      -0.5081    3.4890    2.6404 N.ar    1  LIG  -0.6219  -0.6200 
4     C3       0.6603    2.8180    2.7618 C.ar    1  LIG   0.2365   0.3962 
5     C4       1.3022    2.2581    1.6734 C.ar    1  LIG   0.3403   0.1600 
6     N2       0.7971    2.3502    0.4246 N.ar    1  LIG  -0.6330  -0.6200 
7     C5       1.2327    2.7043    4.1209 C.2     1  LIG   0.5745   0.5438 
8     O1       2.2880    2.1124    4.3168 O.2     1  LIG  -0.6145  -0.5700 
9     N3       0.4980    3.3037    5.1172 N.am    1  LIG  -0.6512  -0.8000 
10    H1       0.8119    3.2775    6.0807 H       1  LIG   0.3205   0.3700 
11    H2      -0.3732    3.7867    4.9214 H       1  LIG   0.3268   0.3700 
12    H3      -0.7731    3.0934   -0.6972 H       1  LIG   0.0390   0.1500 
13    H4      -1.9434    4.1145    1.2894 H       1  LIG   0.0381   0.1500 
14    H5       2.2382    1.7183    1.7571 H       1  LIG   0.0662   0.1500 
@<TRIPOS>BOND
1     1     6     ar
2     1     2     ar
3     1     12    1
4     2     3     ar
5     2     13    1
6     3     4     ar
7     4     5     ar
8     4     7     1
9     5     6     ar
10    5     14    1
11    7     8     2
12    7     9     am
13    9     10    1
14    9     11    1
@<TRIPOS>SUBSTRUCTURE
1   LIG    1    
 
########## Number      : 507
########## Name        : ZINC00002007
########## Description : AM1BCC_CHARGES =  -0.0001 ORIGINAL_CHARGES =   0.0000

@<TRIPOS>MOLECULE
ZINC00002007
24    26    1     0     0    
SMALL
USER_CHARGES
****
****
@<TRIPOS>ATOM
1     C1       4.6894   -8.5153   -0.8332 C.ar    1  LIG  -0.1497  -0.1500 
2     C2       3.4855   -9.0788   -0.4026 C.ar    1  LIG  -0.1066  -0.1500 
3     C3       2.4046   -8.2766   -0.0242 C.ar    1  LIG  -0.1244  -0.1500 
4     C4       2.5990   -6.8990   -0.1018 C.ar    1  LIG   0.0694   0.1400 
5     C5       3.7787   -6.3006   -0.5240 C.ar    1  LIG  -0.1112   0.0000 
6     C6       4.8536   -7.1247   -0.9001 C.ar    1  LIG  -0.0786  -0.1500 
7     C7       3.5477   -4.9011   -0.4509 C.2     1  LIG  -0.1427  -0.1500 
8     C8       2.2540   -4.7268    0.0069 C.2     1  LIG   0.0774   0.0870 
9     O1       1.6782   -5.9498    0.2188 O.3     1  LIG  -0.1993  -0.2800 
10    C9       1.4228   -3.5610    0.2944 C.ar    1  LIG   0.0023   0.0530 
11    C10      0.1103   -3.6954    0.7608 C.ar    1  LIG  -0.2190  -0.1500 
12    C11     -0.6294   -2.5490    1.0160 C.ar    1  LIG   0.3919   0.1600 
13    N1      -0.1647   -1.2942    0.8433 N.ar    1  LIG  -0.6578  -0.6200 
14    C12      1.1025   -1.1857    0.3932 C.ar    1  LIG   0.3930   0.1600 
15    C13      1.9237   -2.2681    0.1087 C.ar    1  LIG  -0.2309  -0.1500 
16    H1       5.5127   -9.1645   -1.1211 H       1  LIG   0.1352   0.1500 
17    H2       3.3865  -10.1609   -0.3607 H       1  LIG   0.1369   0.1500 
18    H3       1.4671   -8.7036    0.3110 H       1  LIG   0.1516   0.1500 
19    H4       5.7947   -6.7002   -1.2366 H       1  LIG   0.1399   0.1500 
20    H5       4.2483   -4.1176   -0.7043 H       1  LIG   0.1659   0.1500 
21    H6      -0.3433   -4.6674    0.9278 H       1  LIG   0.1603   0.1500 
22    H7      -1.6502   -2.6175    1.3785 H       1  LIG   0.0258   0.1500 
23    H8       1.4594   -0.1693    0.2602 H       1  LIG   0.0247   0.1500 
24    H9       2.9320   -2.0883   -0.2501 H       1  LIG   0.1458   0.1500 
@<TRIPOS>BOND
1     1     6     ar
2     1     2     ar
3     1     16    1
4     2     3     ar
5     2     17    1
6     3     4     ar
7     3     18    1
8     4     9     1
9     4     5     ar
10    5     6     ar
11    5     7     1
12    6     19    1
13    7     8     2
14    7     20    1
15    8     9     1
16    8     10    1
17    10    15    ar
18    10    11    ar
19    11    12    ar
20    11    21    1
21    12    13    ar
22    12    22    1
23    13    14    ar
24    14    15    ar
25    14    23    1
26    15    24    1
@<TRIPOS>SUBSTRUCTURE
1   LIG    1    
 
########## Number      : 508
########## Name        : ZINC00002008
########## Description : AM1BCC_CHARGES =  -0.0000 ORIGINAL_CHARGES =  -0.0000

@<TRIPOS>MOLECULE
ZINC00002008
28    29    1     0     0    
SMALL
USER_CHARGES
****
****
@<TRIPOS>ATOM
1     C1       6.3801   -6.6153   -1.0044 C.ar    1  LIG  -0.2417  -0.1500 
2     C2       5.1661   -5.9326   -0.9116 C.ar    1  LIG   0.0445  -0.1500 
3     C3       4.1297   -6.4816   -0.1578 C.ar    1  LIG  -0.4423  -0.0090 
4     C4       4.2870   -7.7021    0.4931 C.ar    1  LIG   0.0393  -0.1500 
5     C5       5.5063   -8.3760    0.3928 C.ar    1  LIG  -0.2416  -0.1500 
6     C6       6.5679   -7.8378   -0.3467 C.ar    1  LIG   0.2458   0.1000 
7     N1       7.7675   -8.5237   -0.4610 N.pl3   1  LIG  -0.8602  -0.9000 
8     S1       2.5975   -5.6057   -0.0514 S.o2    1  LIG   1.3839   1.3180 
9     O1       2.1757   -5.3819   -1.4220 O.2     1  LIG  -0.6708  -0.6500 
10    O2       1.7349   -6.3074    0.8806 O.2     1  LIG  -0.6580  -0.6500 
11    C7       2.9203   -4.0381    0.6754 C.ar    1  LIG   0.0784   0.3010 
12    C8       2.3778   -2.8743    0.1686 C.ar    1  LIG  -0.0961  -0.1500 
13    C9       2.7230   -1.6909    0.8145 C.ar    1  LIG  -0.2038  -0.1500 
14    C10      3.5744   -1.7088    1.9236 C.ar    1  LIG   0.1051   0.1000 
15    C11      4.0639   -2.9502    2.3238 C.ar    1  LIG   0.3095   0.1600 
16    N2       3.7575   -4.1255    1.7290 N.ar    1  LIG  -0.5486  -0.6200 
17    N3       3.9509   -0.5401    2.5596 N.pl3   1  LIG  -0.8361  -0.9000 
18    H1       7.9152   -9.3833    0.0509 H       1  LIG   0.4237   0.4000 
19    H2       8.5461   -8.1122   -0.9580 H       1  LIG   0.4229   0.4000 
20    H3       3.5453    0.3446    2.2843 H       1  LIG   0.4163   0.4000 
21    H4       4.5264   -0.5710    3.3908 H       1  LIG   0.4164   0.4000 
22    H5       7.1838   -6.1839   -1.5967 H       1  LIG   0.1364   0.1500 
23    H6       5.0464   -4.9854   -1.4299 H       1  LIG   0.1392   0.1500 
24    H7       3.4856   -8.1451    1.0764 H       1  LIG   0.1607   0.1500 
25    H8       5.6233   -9.3308    0.9005 H       1  LIG   0.1379   0.1500 
26    H9       1.7151   -2.8643   -0.6883 H       1  LIG   0.1713   0.1500 
27    H10      2.3219   -0.7496    0.4464 H       1  LIG   0.1435   0.1500 
28    H11      4.7433   -3.0372    3.1671 H       1  LIG   0.0244   0.1500 
@<TRIPOS>BOND
1     1     6     ar
2     1     2     ar
3     1     22    1
4     2     3     ar
5     2     23    1
6     3     4     ar
7     3     8     1
8     4     5     ar
9     4     24    1
10    5     6     ar
11    5     25    1
12    6     7     1
13    7     18    1
14    7     19    1
15    8     9     2
16    8     10    2
17    8     11    1
18    11    16    ar
19    11    12    ar
20    12    13    ar
21    12    26    1
22    13    14    ar
23    13    27    1
24    14    15    ar
25    14    17    1
26    15    16    ar
27    15    28    1
28    17    20    1
29    17    21    1
@<TRIPOS>SUBSTRUCTURE
1   LIG    1    
 
########## Number      : 509
########## Name        : ZINC00002009
########## Description : AM1BCC_CHARGES =   0.9998 ORIGINAL_CHARGES =   1.0000

@<TRIPOS>MOLECULE
ZINC00002009
26    26    1     0     0    
SMALL
USER_CHARGES
****
****
@<TRIPOS>ATOM
1     C1       4.9975   -7.1439   -1.5317 C.3     1  LIG  -0.0323   0.4880 
2     N1       3.7300   -7.3487   -0.8169 N.ar    1  LIG   0.0547  -0.2100 
3     C2       3.3522   -8.5993   -0.4701 C.ar    1  LIG  -0.0515   0.2110 
4     C3       2.1548   -8.8229    0.2028 C.ar    1  LIG  -0.1223  -0.1500 
5     C4       1.3348   -7.7457    0.5104 C.ar    1  LIG  -0.0308  -0.1500 
6     C5       1.7325   -6.4755    0.1210 C.ar    1  LIG   0.1429   0.0825 
7     C6       2.9444   -6.2866   -0.5342 C.ar    1  LIG  -0.0551   0.2110 
8     O1       0.9259   -5.3842    0.4505 O.3     1  LIG  -0.3621  -0.2325 
9     C7       0.2393   -4.8202   -0.6288 C.2     1  LIG   0.7478   0.7800 
10    O2       0.3157   -5.2531   -1.7776 O.2     1  LIG  -0.5728  -0.5700 
11    N2      -0.5364   -3.7208   -0.2535 N.am    1  LIG  -0.4099  -0.6602 
12    C8      -1.3228   -3.0097   -1.2502 C.3     1  LIG   0.0682   0.3001 
13    C9      -0.6230   -3.2165    1.1123 C.3     1  LIG   0.0692   0.3001 
14    H1       5.7087   -7.9186   -1.2335 H       1  LIG   0.0992   0.0000 
15    H2       4.7838   -7.2034   -2.6017 H       1  LIG   0.1065   0.0000 
16    H3       5.4037   -6.1633   -1.2701 H       1  LIG   0.1025   0.0000 
17    H4       4.0214   -9.4091   -0.7377 H       1  LIG   0.2094   0.1500 
18    H5       1.8657   -9.8309    0.4838 H       1  LIG   0.2012   0.1500 
19    H6       0.3992   -7.9008    1.0387 H       1  LIG   0.2017   0.1500 
20    H7       3.3004   -5.3108   -0.8425 H       1  LIG   0.2314   0.1500 
21    H8      -2.3777   -3.0557   -0.9646 H       1  LIG   0.0578   0.0000 
22    H9      -0.9960   -1.9661   -1.2776 H       1  LIG   0.0677   0.0000 
23    H10     -1.2052   -3.4447   -2.2458 H       1  LIG   0.0843   0.0000 
24    H11     -1.6667   -3.2655    1.4365 H       1  LIG   0.0497   0.0000 
25    H12     -0.0105   -3.7889    1.8112 H       1  LIG   0.0672   0.0000 
26    H13     -0.2880   -2.1751    1.1215 H       1  LIG   0.0752   0.0000 
@<TRIPOS>BOND
1     1     2     1
2     1     14    1
3     1     15    1
4     1     16    1
5     2     7     ar
6     2     3     ar
7     3     4     ar
8     3     17    1
9     4     5     ar
10    4     18    1
11    5     6     ar
12    5     19    1
13    6     7     ar
14    6     8     1
15    7     20    1
16    8     9     1
17    9     10    2
18    9     11    am
19    11    12    1
20    11    13    1
21    12    21    1
22    12    22    1
23    12    23    1
24    13    24    1
25    13    25    1
26    13    26    1
@<TRIPOS>SUBSTRUCTURE
1   LIG    1    
 
########## Number      : 510
########## Name        : ZINC00002012
########## Description : AM1BCC_CHARGES =   0.0001 ORIGINAL_CHARGES =   0.0000

@<TRIPOS>MOLECULE
ZINC00002012
22    23    1     0     0    
SMALL
USER_CHARGES
****
****
@<TRIPOS>ATOM
1     C1       5.6444   -5.6824    1.2654 C.ar    1  LIG  -0.0934  -0.1500 
2     C2       4.5875   -4.7698    1.3166 C.ar    1  LIG  -0.1187  -0.1500 
3     C3       3.5608   -4.8177    0.3648 C.ar    1  LIG   0.0778   0.0540 
4     C4       3.6285   -5.7979   -0.6389 C.ar    1  LIG  -0.1501   0.1330 
5     C5       4.6845   -6.7153   -0.7006 C.ar    1  LIG   0.0524   0.1770 
6     C6       5.6932   -6.6520    0.2620 C.ar    1  LIG  -0.1308  -0.1500 
7     Cl1      4.8061   -7.9255   -1.9274 Cl      1  LIG  -0.0511  -0.1770 
8     N1       2.5952   -5.8494   -1.6475 N.pl3   1  LIG   0.3200   0.9070 
9     O1       2.7171   -5.0851   -2.6131 O.2     1  LIG  -0.1763  -0.5200 
10    O2       1.6738   -6.6551   -1.4647 O.3     1  LIG  -0.2181  -0.5200 
11    C7       2.4848   -3.8481    0.4549 C.2     1  LIG  -0.1593  -0.0540 
12    C8       1.2261   -4.1688    0.9257 C.2     1  LIG  -0.0991  -0.3016 
13    N2       0.4588   -3.0325    0.8896 N.pl3   1  LIG  -0.1620   0.0332 
14    C9       1.2060   -1.9870    0.4132 C.2     1  LIG  -0.1558  -0.3016 
15    C10      2.4683   -2.4630    0.1384 C.2     1  LIG  -0.0380   0.1230 
16    Cl2      3.7733   -1.5653   -0.4793 Cl      1  LIG  -0.0513  -0.1230 
17    H1      -0.5096   -2.9747    1.1744 H       1  LIG   0.3068   0.2700 
18    H2       6.4339   -5.6360    2.0109 H       1  LIG   0.1475   0.1500 
19    H3       4.5754   -4.0247    2.1097 H       1  LIG   0.1589   0.1500 
20    H4       6.5272   -7.3495    0.2418 H       1  LIG   0.1585   0.1500 
21    H5       0.8053   -5.1000    1.2814 H       1  LIG   0.2002   0.1500 
22    H6       0.7718   -1.0018    0.3132 H       1  LIG   0.1820   0.1500 
@<TRIPOS>BOND
1     1     6     ar
2     1     2     ar
3     1     18    1
4     2     3     ar
5     2     19    1
6     3     4     ar
7     3     11    1
8     4     5     ar
9     4     8     1
10    5     6     ar
11    5     7     1
12    6     20    1
13    8     9     2
14    8     10    1
15    11    15    1
16    11    12    2
17    12    13    1
18    12    21    1
19    13    14    1
20    13    17    1
21    14    15    2
22    14    22    1
23    15    16    1
@<TRIPOS>SUBSTRUCTURE
1   LIG    1    
 
########## Number      : 511
########## Name        : ZINC00002025
########## Description : AM1BCC_CHARGES =  -0.0003 ORIGINAL_CHARGES =   0.0000

@<TRIPOS>MOLECULE
ZINC00002025
56    59    1     0     0    
SMALL
USER_CHARGES
****
****
@<TRIPOS>ATOM
1     C1       4.1151   -2.8724   -1.0393 C.3     1  LIG  -0.2015   0.0610 
2     C2       3.6955   -1.5130   -0.5426 C.2     1  LIG   0.5695   0.4480 
3     O1       4.3426   -0.5162   -0.8825 O.2     1  LIG  -0.5352  -0.5700 
4     C3       2.4892   -1.3457    0.3918 C.3     1  LIG  -0.1609   0.0610 
5     C4       2.0862   -2.6631    1.1178 C.3     1  LIG  -0.0756   0.0000 
6     C5       0.7932   -3.1861    0.4537 C.3     1  LIG  -0.0738   0.0000 
7     C6       0.6126   -2.3022   -0.7797 C.3     1  LIG  -0.0704   0.0000 
8     C7       1.2047   -0.9616   -0.3669 C.3     1  LIG  -0.0323   0.0000 
9     C8       1.3956   -0.1431   -1.6456 C.3     1  LIG  -0.1737   0.0610 
10    C9       0.0830    0.0059   -2.4096 C.2     1  LIG   0.5759   0.4480 
11    O2      -0.1319    1.0674   -2.9978 O.2     1  LIG  -0.5387  -0.5700 
12    C10     -0.7944   -1.2572   -2.6051 C.3     1  LIG  -0.1487   0.0610 
13    C11     -0.8051   -2.1558   -1.3384 C.3     1  LIG  -0.0434   0.0000 
14    C12     -1.3963   -3.5384   -1.7126 C.3     1  LIG  -0.0754   0.0000 
15    C13     -2.5141   -3.4417   -2.7563 C.3     1  LIG  -0.0765   0.0000 
16    C14     -3.2537   -2.1010   -2.6306 C.3     1  LIG  -0.0530   0.0000 
17    C15     -2.2878   -0.9121   -3.0382 C.3     1  LIG  -0.0211   0.0000 
18    C16     -2.2736   -0.6474   -4.5722 C.3     1  LIG  -0.0749   0.0000 
19    C17     -3.6465   -0.6132   -5.2227 C.3     1  LIG  -0.1083   0.0000 
20    C18     -4.4032   -1.9029   -4.9322 C.3     1  LIG   0.1381   0.2800 
21    C19     -4.5635   -2.0844   -3.4313 C.3     1  LIG  -0.1038   0.0000 
22    O3      -5.6885   -1.8327   -5.5285 O.3     1  LIG  -0.5964  -0.6800 
23    C20     -2.8391    0.3414   -2.3034 C.3     1  LIG  -0.0959   0.0000 
24    C21      0.3049   -0.1349    0.5926 C.3     1  LIG  -0.0895   0.0000 
25    H1      -6.1557   -1.0656   -5.1559 H       1  LIG   0.3953   0.4000 
26    H2       4.7781   -2.7493   -1.9014 H       1  LIG   0.0685   0.0000 
27    H3       4.6623   -3.3989   -0.2540 H       1  LIG   0.0686   0.0000 
28    H4       3.2583   -3.4611   -1.3656 H       1  LIG   0.0587   0.0000 
29    H5       2.7891   -0.6322    1.1783 H       1  LIG   0.0835   0.0000 
30    H6       2.8671   -3.4274    1.1206 H       1  LIG   0.0483   0.0000 
31    H7       1.8702   -2.4472    2.1719 H       1  LIG   0.0495   0.0000 
32    H8       0.8840   -4.2443    0.1878 H       1  LIG   0.0463   0.0000 
33    H9      -0.0514   -3.0895    1.1454 H       1  LIG   0.0489   0.0000 
34    H10      1.1936   -2.7915   -1.5808 H       1  LIG   0.0472   0.0000 
35    H11      1.7833    0.8551   -1.4104 H       1  LIG   0.0899   0.0000 
36    H12      2.0921   -0.6194   -2.3449 H       1  LIG   0.0724   0.0000 
37    H13     -0.3099   -1.8754   -3.3867 H       1  LIG   0.0724   0.0000 
38    H14     -1.4668   -1.7465   -0.5585 H       1  LIG   0.0626   0.0000 
39    H15     -0.6204   -4.2111   -2.0982 H       1  LIG   0.0406   0.0000 
40    H16     -1.7870   -4.0106   -0.8022 H       1  LIG   0.0429   0.0000 
41    H17     -2.0935   -3.5540   -3.7629 H       1  LIG   0.0436   0.0000 
42    H18     -3.2030   -4.2829   -2.6144 H       1  LIG   0.0460   0.0000 
43    H19     -3.5291   -2.0304   -1.5608 H       1  LIG   0.0472   0.0000 
44    H20     -1.7588    0.2940   -4.7954 H       1  LIG   0.0718   0.0000 
45    H21     -1.6915   -1.4332   -5.0717 H       1  LIG   0.0355   0.0000 
46    H22     -4.2183    0.2564   -4.8759 H       1  LIG   0.0436   0.0000 
47    H23     -3.5440   -0.4831   -6.3071 H       1  LIG   0.0557   0.0000 
48    H24     -3.8383   -2.7423   -5.3649 H       1  LIG   0.0759   0.0000 
49    H25     -5.1265   -3.0079   -3.2413 H       1  LIG   0.0539   0.0000 
50    H26     -5.2145   -1.2905   -3.0415 H       1  LIG   0.0395   0.0000 
51    H27     -3.9205    0.4466   -2.4384 H       1  LIG   0.0338   0.0000 
52    H28     -2.6566    0.2812   -1.2257 H       1  LIG   0.0288   0.0000 
53    H29     -2.4096    1.2763   -2.6712 H       1  LIG   0.0649   0.0000 
54    H30     -0.6296    0.1949    0.1312 H       1  LIG   0.0437   0.0000 
55    H31      0.0421   -0.6976    1.4944 H       1  LIG   0.0400   0.0000 
56    H32      0.8305    0.7709    0.9185 H       1  LIG   0.0457   0.0000 
@<TRIPOS>BOND
1     1     2     1
2     1     26    1
3     1     27    1
4     1     28    1
5     2     3     2
6     2     4     1
7     4     8     1
8     4     5     1
9     4     29    1
10    5     6     1
11    5     30    1
12    5     31    1
13    6     7     1
14    6     32    1
15    6     33    1
16    7     13    1
17    7     8     1
18    7     34    1
19    8     9     1
20    8     24    1
21    9     10    1
22    9     35    1
23    9     36    1
24    10    11    2
25    10    12    1
26    12    17    1
27    12    13    1
28    12    37    1
29    13    14    1
30    13    38    1
31    14    15    1
32    14    39    1
33    14    40    1
34    15    16    1
35    15    41    1
36    15    42    1
37    16    21    1
38    16    17    1
39    16    43    1
40    17    18    1
41    17    23    1
42    18    19    1
43    18    44    1
44    18    45    1
45    19    20    1
46    19    46    1
47    19    47    1
48    20    21    1
49    20    22    1
50    20    48    1
51    21    49    1
52    21    50    1
53    22    25    1
54    23    51    1
55    23    52    1
56    23    53    1
57    24    54    1
58    24    55    1
59    24    56    1
@<TRIPOS>SUBSTRUCTURE
1   LIG    1    
 
########## Number      : 512
########## Name        : ZINC00002028
########## Description : AM1BCC_CHARGES =   0.0001 ORIGINAL_CHARGES =  -0.0000

@<TRIPOS>MOLECULE
ZINC00002028
14    14    1     0     0    
SMALL
USER_CHARGES
****
****
@<TRIPOS>ATOM
1     C1       5.5342   -9.5483    0.5072 C.ar    1  LIG  -0.0595  -0.1500 
2     C2       4.5615   -9.3240    1.4826 C.ar    1  LIG  -0.2493  -0.1500 
3     C3       3.6950   -8.2389    1.3519 C.ar    1  LIG   0.1619   0.0825 
4     C4       3.7870   -7.3766    0.2619 C.ar    1  LIG  -0.2459  -0.1500 
5     C5       4.7627   -7.6122   -0.7045 C.ar    1  LIG   0.1577   0.0825 
6     C6       5.6366   -8.6916   -0.5895 C.ar    1  LIG  -0.1915  -0.1500 
7     O1       4.8904   -6.7931   -1.7908 O.3     1  LIG  -0.4954  -0.5325 
8     O2       2.7317   -7.9914    2.2892 O.3     1  LIG  -0.4973  -0.5325 
9     H1       4.2178   -6.0932   -1.7314 H       1  LIG   0.4220   0.4500 
10    H2       2.7913   -8.6715    2.9818 H       1  LIG   0.4216   0.4500 
11    H3       6.2130  -10.3912    0.6016 H       1  LIG   0.1360   0.1500 
12    H4       4.4906   -9.9970    2.3320 H       1  LIG   0.1353   0.1500 
13    H5       3.1053   -6.5360    0.1738 H       1  LIG   0.1522   0.1500 
14    H6       6.3950   -8.8696   -1.3465 H       1  LIG   0.1523   0.1500 
@<TRIPOS>BOND
1     1     6     ar
2     1     2     ar
3     1     11    1
4     2     3     ar
5     2     12    1
6     3     4     ar
7     3     8     1
8     4     5     ar
9     4     13    1
10    5     6     ar
11    5     7     1
12    6     14    1
13    7     9     1
14    8     10    1
@<TRIPOS>SUBSTRUCTURE
1   LIG    1    
 
########## Number      : 513
########## Name        : ZINC00002029
########## Description : AM1BCC_CHARGES =   0.0002 ORIGINAL_CHARGES =   0.0000

@<TRIPOS>MOLECULE
ZINC00002029
19    19    1     0     0    
SMALL
USER_CHARGES
****
****
@<TRIPOS>ATOM
1     C1       5.1483  -10.0953   -2.8850 C.3     1  LIG  -0.1504   0.0610 
2     C2       5.0896   -8.7227   -2.2832 C.2     1  LIG   0.6374   0.6590 
3     O1       6.0598   -7.9893   -2.1469 O.2     1  LIG  -0.5126  -0.5700 
4     O2       3.7749   -8.4506   -1.9227 O.3     1  LIG  -0.3795  -0.2325 
5     C3       3.6215   -7.1857   -1.3507 C.ar    1  LIG   0.1403   0.0825 
6     C4       3.7382   -7.0445    0.0323 C.ar    1  LIG  -0.1618  -0.1500 
7     C5       3.5499   -5.7869    0.6045 C.ar    1  LIG  -0.0815  -0.1500 
8     C6       3.2370   -4.6892   -0.2011 C.ar    1  LIG  -0.2147  -0.1500 
9     C7       3.1091   -4.8579   -1.5811 C.ar    1  LIG   0.1346   0.0825 
10    C8       3.2939   -6.1056   -2.1685 C.ar    1  LIG  -0.1553  -0.1500 
11    O3       2.7961   -3.8036   -2.3923 O.3     1  LIG  -0.4951  -0.5325 
12    H1       2.7017   -3.0071   -1.8426 H       1  LIG   0.4208   0.4500 
13    H2       6.1792  -10.3204   -3.1732 H       1  LIG   0.0782   0.0000 
14    H3       4.8225  -10.8362   -2.1507 H       1  LIG   0.0780   0.0000 
15    H4       4.5205  -10.1354   -3.7786 H       1  LIG   0.0789   0.0000 
16    H5       3.9749   -7.8986    0.6593 H       1  LIG   0.1468   0.1500 
17    H6       3.6441   -5.6606    1.6794 H       1  LIG   0.1375   0.1500 
18    H7       3.0922   -3.7151    0.2573 H       1  LIG   0.1360   0.1500 
19    H8       3.1875   -6.2344   -3.2411 H       1  LIG   0.1626   0.1500 
@<TRIPOS>BOND
1     1     2     1
2     1     13    1
3     1     14    1
4     1     15    1
5     2     3     2
6     2     4     1
7     4     5     1
8     5     10    ar
9     5     6     ar
10    6     7     ar
11    6     16    1
12    7     8     ar
13    7     17    1
14    8     9     ar
15    8     18    1
16    9     10    ar
17    9     11    1
18    10    19    1
19    11    12    1
@<TRIPOS>SUBSTRUCTURE
1   LIG    1    
 
########## Number      : 514
########## Name        : ZINC00002032
########## Description : AM1BCC_CHARGES =   1.0000 ORIGINAL_CHARGES =   1.0000

@<TRIPOS>MOLECULE
ZINC00002032
34    35    1     0     0    
SMALL
USER_CHARGES
****
****
@<TRIPOS>ATOM
1     C1       5.1314   -4.5669   -0.9767 C.ar    1  LIG  -0.1405  -0.1500 
2     C2       5.7665   -5.3733   -1.9259 C.ar    1  LIG  -0.1652  -0.1500 
3     C3       5.5294   -6.7441   -1.9327 C.ar    1  LIG   0.0765   0.0825 
4     C4       4.6652   -7.3072   -1.0000 C.ar    1  LIG   0.1314   0.0825 
5     C5       4.0305   -6.5088   -0.0514 C.ar    1  LIG  -0.1297  -0.1500 
6     C6       4.2572   -5.1222   -0.0262 C.ar    1  LIG  -0.1928  -0.1435 
7     C7       3.5354   -4.2737    1.0121 C.3     1  LIG   0.1825   0.4235 
8     C8       2.0576   -4.0243    0.6288 C.3     1  LIG   0.1297   0.5030 
9     C9       1.2902   -3.3397    1.7746 C.3     1  LIG  -0.1026   0.0000 
10    C10     -0.1409   -2.9998    1.3625 C.3     1  LIG  -0.0985   0.0000 
11    C11     -0.1622   -2.1599    0.0886 C.3     1  LIG  -0.1052   0.0000 
12    C12      0.6083   -2.8315   -1.0362 C.3     1  LIG   0.1109   0.5030 
13    O1       4.1987   -3.0230    1.1629 O.3     1  LIG  -0.6246  -0.6800 
14    O2       4.4159   -8.6507   -0.9894 O.3     1  LIG  -0.4778  -0.5325 
15    O3       6.1332   -7.5600   -2.8473 O.3     1  LIG  -0.4970  -0.5325 
16    H1       4.0279   -2.7051    2.0662 H       1  LIG   0.4505   0.4000 
17    H2       4.9417   -9.0467   -1.7077 H       1  LIG   0.4556   0.4500 
18    H3       6.7066   -7.0179   -3.4162 H       1  LIG   0.4472   0.4500 
19    H4       5.3290   -3.4977   -0.9920 H       1  LIG   0.1427   0.1500 
20    H5       6.4385   -4.9187   -2.6482 H       1  LIG   0.1566   0.1500 
21    H6       3.3587   -6.9682    0.6701 H       1  LIG   0.1619   0.1500 
22    H7       3.5906   -4.8370    1.9585 H       1  LIG   0.0941   0.0000 
23    H8       1.5560   -4.9845    0.4173 H       1  LIG   0.1101   0.0000 
24    H9       1.2703   -3.9965    2.6522 H       1  LIG   0.0957   0.0000 
25    H10      1.7956   -2.4155    2.0806 H       1  LIG   0.0876   0.0000 
26    H11     -0.7052   -3.9264    1.2005 H       1  LIG   0.0646   0.0000 
27    H12     -0.6409   -2.4573    2.1727 H       1  LIG   0.0928   0.0000 
28    H13     -1.1984   -1.9903   -0.2245 H       1  LIG   0.1013   0.0000 
29    H14      0.2738   -1.1745    0.2957 H       1  LIG   0.0738   0.0000 
30    H15      0.1487   -3.7768   -1.3429 H       1  LIG   0.1027   0.0000 
31    H16      0.7006   -2.1758   -1.9069 H       1  LIG   0.1021   0.0000 
32    N1       1.9939   -3.1416   -0.5751 N.4     1  LIG  -0.7574  -0.9060 
33    H17      2.4994   -3.5863   -1.3534 H       1  LIG   0.4589   0.4500 
34    H18      2.5034   -2.2668   -0.3822 H       1  LIG   0.4621   0.4500 
@<TRIPOS>BOND
1     1     6     ar
2     1     2     ar
3     1     19    1
4     2     3     ar
5     2     20    1
6     3     4     ar
7     3     15    1
8     4     5     ar
9     4     14    1
10    5     6     ar
11    5     21    1
12    6     7     1
13    7     8     1
14    7     13    1
15    7     22    1
16    8     9     1
17    8     23    1
18    8     32    1
19    9     10    1
20    9     24    1
21    9     25    1
22    10    11    1
23    10    26    1
24    10    27    1
25    11    12    1
26    11    28    1
27    11    29    1
28    12    30    1
29    12    31    1
30    12    32    1
31    13    16    1
32    14    17    1
33    15    18    1
34    32    33    1
35    32    34    1
@<TRIPOS>SUBSTRUCTURE
1   LIG    1    
 
########## Number      : 515
########## Name        : ZINC00002036
########## Description : AM1BCC_CHARGES =   0.0001 ORIGINAL_CHARGES =   0.0000

@<TRIPOS>MOLECULE
ZINC00002036
32    34    1     0     0    
SMALL
USER_CHARGES
****
****
@<TRIPOS>ATOM
1     C1       4.6984   -6.5726    3.5613 C.3     1  LIG  -0.1326   0.1435 
2     C2       4.6821   -7.3375    2.2743 C.ar    1  LIG   0.7028   0.4765 
3     N1       5.4676   -8.4256    2.2069 N.ar    1  LIG  -0.7544  -0.5670 
4     C3       5.3990   -9.0183    1.0065 C.ar    1  LIG   0.4779   0.1054 
5     C4       4.6419   -8.6185   -0.0905 C.ar    1  LIG  -0.3783   0.0000 
6     C5       4.9139   -9.5727   -1.1153 C.2     1  LIG  -0.1516  -0.1500 
7     C6       5.8064  -10.4980   -0.6190 C.2     1  LIG  -0.1331  -0.3016 
8     N2       6.0935  -10.1491    0.6713 N.pl3   1  LIG  -0.2850   0.0332 
9     C7       3.8520   -7.4572    0.0643 C.ar    1  LIG   0.7541   0.4100 
10    N3       3.9076   -6.8374    1.2832 N.ar    1  LIG  -0.8097  -0.6200 
11    N4       3.0316   -6.8826   -0.8855 N.pl3   1  LIG  -0.8793  -0.8691 
12    C8       2.8276   -7.3708   -2.2296 C.3     1  LIG   0.2714   0.5126 
13    C9       1.8615   -6.4762   -2.9662 C.ar    1  LIG  -0.1188  -0.1435 
14    C10      2.3269   -5.3648   -3.6827 C.ar    1  LIG  -0.1092  -0.1500 
15    C11      1.4303   -4.5247   -4.3449 C.ar    1  LIG  -0.1329  -0.1500 
16    C12      0.0617   -4.7829   -4.2915 C.ar    1  LIG  -0.1181  -0.1500 
17    C13     -0.4123   -5.8793   -3.5734 C.ar    1  LIG  -0.1328  -0.1500 
18    C14      0.4822   -6.7209   -2.9103 C.ar    1  LIG  -0.1109  -0.1500 
19    H1       6.7205  -10.6452    1.2890 H       1  LIG   0.3097   0.2700 
20    H2       2.5419   -6.0463   -0.5868 H       1  LIG   0.4512   0.4000 
21    H3       4.8982   -7.2400    4.4053 H       1  LIG   0.0596   0.0000 
22    H4       5.4789   -5.8071    3.5245 H       1  LIG   0.0568   0.0000 
23    H5       3.7336   -6.0853    3.7326 H       1  LIG   0.0602   0.0000 
24    H6       4.5102   -9.5976   -2.1172 H       1  LIG   0.1537   0.1500 
25    H7       6.2590  -11.3694   -1.0713 H       1  LIG   0.1678   0.1500 
26    H8       3.7762   -7.3979   -2.7790 H       1  LIG   0.0527   0.0000 
27    H9       2.4253   -8.3908   -2.2132 H       1  LIG   0.0477   0.0000 
28    H10      3.3911   -5.1465   -3.7277 H       1  LIG   0.1390   0.1500 
29    H11      1.7996   -3.6673   -4.9003 H       1  LIG   0.1355   0.1500 
30    H12     -0.6353   -4.1280   -4.8063 H       1  LIG   0.1342   0.1500 
31    H13     -1.4794   -6.0779   -3.5274 H       1  LIG   0.1353   0.1500 
32    H14      0.0969   -7.5683   -2.3484 H       1  LIG   0.1372   0.1500 
@<TRIPOS>BOND
1     1     2     1
2     1     21    1
3     1     22    1
4     1     23    1
5     2     10    ar
6     2     3     ar
7     3     4     ar
8     4     8     1
9     4     5     ar
10    5     6     1
11    5     9     ar
12    6     7     2
13    6     24    1
14    7     8     1
15    7     25    1
16    8     19    1
17    9     10    ar
18    9     11    1
19    11    12    1
20    11    20    1
21    12    13    1
22    12    26    1
23    12    27    1
24    13    18    ar
25    13    14    ar
26    14    15    ar
27    14    28    1
28    15    16    ar
29    15    29    1
30    16    17    ar
31    16    30    1
32    17    18    ar
33    17    31    1
34    18    32    1
@<TRIPOS>SUBSTRUCTURE
1   LIG    1    
 
########## Number      : 516
########## Name        : ZINC00002037
########## Description : AM1BCC_CHARGES =  -0.0001 ORIGINAL_CHARGES =  -0.0000

@<TRIPOS>MOLECULE
ZINC00002037
19    20    1     0     0    
SMALL
USER_CHARGES
****
****
@<TRIPOS>ATOM
1     C1       5.9011   -9.6765    0.0026 C.3     1  LIG  -0.0926   0.0000 
2     C2       4.9954  -10.9091   -0.1189 C.3     1  LIG  -0.1691   0.0610 
3     C3       3.7623  -10.3689   -0.8171 C.2     1  LIG   0.6978   0.5690 
4     O1       2.6698  -10.9097   -0.8555 O.2     1  LIG  -0.5492  -0.5700 
5     N1       4.1657   -9.1730   -1.4323 N.am    1  LIG  -0.4920  -0.4201 
6     C4       5.5581   -8.8885   -1.2433 C.3     1  LIG   0.0602   0.3001 
7     C5       5.5926   -7.3764   -1.1873 C.3     1  LIG  -0.0921   0.0000 
8     C6       4.4682   -6.9783   -2.1525 C.3     1  LIG  -0.1687   0.0610 
9     C7       3.4577   -8.0976   -1.9921 C.2     1  LIG   0.6977   0.5690 
10    O2       2.2870   -8.0560   -2.3318 O.2     1  LIG  -0.5504  -0.5700 
11    H1       6.9615   -9.9373    0.0624 H       1  LIG   0.0631   0.0000 
12    H2       5.6373   -9.1186    0.9097 H       1  LIG   0.0576   0.0000 
13    H3       5.4498  -11.6801   -0.7489 H       1  LIG   0.0856   0.0000 
14    H4       4.7415  -11.3216    0.8604 H       1  LIG   0.0855   0.0000 
15    H5       6.0974   -9.2697   -2.1198 H       1  LIG   0.0747   0.0000 
16    H6       5.3547   -7.0114   -0.1804 H       1  LIG   0.0576   0.0000 
17    H7       6.5624   -6.9622   -1.4768 H       1  LIG   0.0631   0.0000 
18    H8       4.0296   -6.0139   -1.8855 H       1  LIG   0.0855   0.0000 
19    H9       4.8170   -6.9621   -3.1897 H       1  LIG   0.0856   0.0000 
@<TRIPOS>BOND
1     1     6     1
2     1     2     1
3     1     11    1
4     1     12    1
5     2     3     1
6     2     13    1
7     2     14    1
8     3     4     2
9     3     5     am
10    5     9     am
11    5     6     1
12    6     7     1
13    6     15    1
14    7     8     1
15    7     16    1
16    7     17    1
17    8     9     1
18    8     18    1
19    8     19    1
20    9     10    2
@<TRIPOS>SUBSTRUCTURE
1   LIG    1    
 
########## Number      : 517
########## Name        : ZINC00002040
########## Description : AM1BCC_CHARGES =   0.0000 ORIGINAL_CHARGES =  -0.0000

@<TRIPOS>MOLECULE
ZINC00002040
24    24    1     0     0    
SMALL
USER_CHARGES
****
****
@<TRIPOS>ATOM
1     C1       5.5896   -8.3099   -1.2396 C.3     1  LIG   0.1386   0.2800 
2     O1       4.8998   -7.2477   -0.6035 O.3     1  LIG  -0.5433  -0.5512 
3     P1       3.3524   -7.4536   -0.1513 P.3     1  LIG   1.2316   1.4909 
4     S1       2.0647   -7.9345   -1.5296 S.2     1  LIG  -0.5544  -0.6773 
5     O2       3.4809   -8.5527    1.0420 O.3     1  LIG  -0.5388  -0.5512 
6     C2       4.2707   -8.2739    2.1855 C.3     1  LIG   0.1686   0.2800 
7     O3       3.0409   -6.1021    0.6839 O.3     1  LIG  -0.4567  -0.3537 
8     C3       3.0161   -4.8208    0.2005 C.ar    1  LIG   0.1446   0.0825 
9     C4       3.4289   -4.4806   -1.0887 C.ar    1  LIG  -0.1169  -0.1500 
10    C5       3.3809   -3.1480   -1.5168 C.ar    1  LIG   0.0347   0.1770 
11    C6       2.9217   -2.1496   -0.6522 C.ar    1  LIG   0.0260   0.1770 
12    C7       2.5131   -2.4851    0.6402 C.ar    1  LIG  -0.0964  -0.1500 
13    C8       2.5626   -3.8157    1.0630 C.ar    1  LIG   0.0144   0.1770 
14    Cl1      2.0488   -4.1851    2.6717 Cl      1  LIG  -0.0577  -0.1770 
15    Cl2      2.8391   -0.4888   -1.1217 Cl      1  LIG  -0.0451  -0.1770 
16    Cl3      3.9060   -2.7992   -3.1267 Cl      1  LIG  -0.0464  -0.1770 
17    H1       6.6585   -8.0825   -1.2360 H       1  LIG   0.0583   0.0000 
18    H2       5.4259   -9.2501   -0.7067 H       1  LIG   0.0630   0.0000 
19    H3       5.2516   -8.4035   -2.2745 H       1  LIG   0.0674   0.0000 
20    H4       4.3792   -9.1935    2.7659 H       1  LIG   0.0632   0.0000 
21    H5       5.2630   -7.9211    1.8944 H       1  LIG   0.0485   0.0000 
22    H6       3.7746   -7.5225    2.8048 H       1  LIG   0.0525   0.0000 
23    H7       3.7962   -5.2371   -1.7751 H       1  LIG   0.1704   0.1500 
24    H8       2.1569   -1.7120    1.3178 H       1  LIG   0.1739   0.1500 
@<TRIPOS>BOND
1     1     2     1
2     1     17    1
3     1     18    1
4     1     19    1
5     2     3     1
6     3     4     2
7     3     5     1
8     3     7     1
9     5     6     1
10    6     20    1
11    6     21    1
12    6     22    1
13    7     8     1
14    8     13    ar
15    8     9     ar
16    9     10    ar
17    9     23    1
18    10    11    ar
19    10    16    1
20    11    12    ar
21    11    15    1
22    12    13    ar
23    12    24    1
24    13    14    1
@<TRIPOS>SUBSTRUCTURE
1   LIG    1    
 
########## Number      : 518
########## Name        : ZINC00002042
########## Description : AM1BCC_CHARGES =  -0.9996 ORIGINAL_CHARGES =  -1.0000

@<TRIPOS>MOLECULE
ZINC00002042
35    37    1     0     0    
SMALL
USER_CHARGES
****
****
@<TRIPOS>ATOM
1     C1       7.5601   -8.6684    0.1899 C.3     1  LIG  -0.1077   0.0000 
2     C2       6.9536   -7.6016    1.0918 C.3     1  LIG   0.2263   0.3691 
3     N1       5.8187   -8.0366    1.9320 N.pl3   1  LIG  -0.5353  -0.5691 
4     C3       5.2425   -9.2965    1.8903 C.2     1  LIG   0.0653  -0.0500 
5     C4       4.2284   -9.7439    2.6407 C.2     1  LIG  -0.2700  -0.2356 
6     C5       3.6460   -8.8075    3.6310 C.2     1  LIG   0.5960   0.4694 
7     O1       2.7551   -9.1485    4.3995 O.2     1  LIG  -0.5524  -0.5700 
8     C6       4.2015   -7.4313    3.6720 C.ar    1  LIG  -0.2046   0.0862 
9     C7       5.2723   -7.0727    2.8272 C.ar    1  LIG   0.1996   0.1000 
10    C8       5.7442   -5.7458    2.9251 C.ar    1  LIG  -0.1995  -0.1500 
11    C9       5.1922   -4.8022    3.8185 C.ar    1  LIG  -0.0209   0.0000 
12    C10      4.1327   -5.2127    4.6376 C.ar    1  LIG  -0.1875  -0.1500 
13    C11      3.6393   -6.5135    4.5675 C.ar    1  LIG  -0.0496  -0.1500 
14    C12      5.7147   -3.4245    3.8876 C.ar    1  LIG   0.0199   0.0000 
15    C13      5.9077   -2.6610    2.7282 C.ar    1  LIG  -0.2395  -0.1500 
16    C14      6.4011   -1.3689    2.8464 C.ar    1  LIG   0.3840   0.1600 
17    N2       6.7157   -0.7836    4.0205 N.ar    1  LIG  -0.6793  -0.6200 
18    C15      6.5248   -1.5307    5.1276 C.ar    1  LIG   0.3840   0.1600 
19    C16      6.0358   -2.8297    5.1154 C.ar    1  LIG  -0.2373  -0.1500 
20    C17      3.7006  -11.1686    2.4403 C.2     1  LIG   0.9298   1.0500 
21    O2       2.4434  -11.2941    2.4844 O.co2   1  LIG  -0.7923  -0.9000 
22    H1       8.4087   -8.2504   -0.3621 H       1  LIG   0.0311   0.0000 
23    H2       7.9296   -9.5208    0.7693 H       1  LIG   0.0598   0.0000 
24    H3       6.8357   -9.0295   -0.5473 H       1  LIG   0.0535   0.0000 
25    H4       7.7623   -7.2379    1.7386 H       1  LIG   0.0338   0.0000 
26    H5       6.6304   -6.7734    0.4485 H       1  LIG   0.0289   0.0000 
27    H6       5.6800   -9.9595    1.1536 H       1  LIG   0.1755   0.1500 
28    H7       6.5727   -5.4160    2.3020 H       1  LIG   0.1264   0.1500 
29    H8       3.6691   -4.5184    5.3352 H       1  LIG   0.1256   0.1500 
30    H9       2.8132   -6.7952    5.2157 H       1  LIG   0.1568   0.1500 
31    H10      5.6705   -3.0544    1.7442 H       1  LIG   0.1481   0.1500 
32    H11      6.5580   -0.7530    1.9667 H       1  LIG   0.0132   0.1500 
33    H12      6.7850   -1.0452    6.0628 H       1  LIG   0.0135   0.1500 
34    H13      5.9197   -3.3658    6.0527 H       1  LIG   0.1496   0.1500 
35    O3       4.5810  -12.0558    2.2419 O.co2   1  LIG  -0.8444  -0.9000 
@<TRIPOS>BOND
1     1     2     1
2     1     22    1
3     1     23    1
4     1     24    1
5     2     3     1
6     2     25    1
7     2     26    1
8     3     9     1
9     3     4     1
10    4     5     2
11    4     27    1
12    5     6     1
13    5     20    1
14    6     7     2
15    6     8     1
16    8     13    ar
17    8     9     ar
18    9     10    ar
19    10    11    ar
20    10    28    1
21    11    12    ar
22    11    14    1
23    12    13    ar
24    12    29    1
25    13    30    1
26    14    19    ar
27    14    15    ar
28    15    16    ar
29    15    31    1
30    16    17    ar
31    16    32    1
32    17    18    ar
33    18    19    ar
34    18    33    1
35    19    34    1
36    20    21    2
37    20    35    1
@<TRIPOS>SUBSTRUCTURE
1   LIG    1    
 
########## Number      : 519
########## Name        : ZINC00002043
########## Description : AM1BCC_CHARGES =   1.0000 ORIGINAL_CHARGES =   1.0000

@<TRIPOS>MOLECULE
ZINC00002043
40    41    1     0     0    
SMALL
USER_CHARGES
****
****
@<TRIPOS>ATOM
1     C1       4.0264   -8.9671    0.2516 C.3     1  LIG   0.0827   0.5030 
2     C2       5.7206   -8.1161   -1.3479 C.3     1  LIG   0.0827   0.5030 
3     C3       4.9110   -6.6565    0.5467 C.3     1  LIG   0.0570   0.5030 
4     C4       6.1865   -5.8365    0.7132 C.3     1  LIG   0.1217   0.2800 
5     O1       5.8780   -4.5545    1.2617 O.3     1  LIG  -0.3738  -0.5600 
6     C5       5.8213   -4.5274    2.6915 C.3     1  LIG   0.1522   0.5670 
7     C6       4.7368   -3.5442    3.1067 C.ar    1  LIG  -0.1157  -0.1435 
8     C7       3.7985   -3.9037    4.0868 C.ar    1  LIG  -0.1111  -0.1500 
9     C8       2.8061   -3.0060    4.4863 C.ar    1  LIG  -0.1270  -0.1500 
10    C9       2.7473   -1.7387    3.9100 C.ar    1  LIG   0.0340   0.1770 
11    C10      3.6727   -1.3611    2.9394 C.ar    1  LIG  -0.1262  -0.1500 
12    C11      4.6638   -2.2603    2.5416 C.ar    1  LIG  -0.0761  -0.1500 
13    Cl1      1.5242   -0.6314    4.4024 Cl      1  LIG  -0.0638  -0.1770 
14    C12      7.1805   -4.1399    3.2491 C.ar    1  LIG   0.3483   0.1665 
15    C13      7.5547   -4.5774    4.5198 C.ar    1  LIG  -0.2345  -0.1500 
16    C14      8.7939   -4.1922    5.0229 C.ar    1  LIG  -0.0854  -0.1500 
17    C15      9.6249   -3.3829    4.2600 C.ar    1  LIG  -0.2242  -0.1500 
18    C16      9.1746   -2.9877    3.0130 C.ar    1  LIG   0.3985   0.1600 
19    N1       7.9784   -3.3425    2.4931 N.ar    1  LIG  -0.6533  -0.6200 
20    H1       3.7547   -8.9630    1.3106 H       1  LIG   0.1045   0.0000 
21    H2       3.2060   -8.5935   -0.3670 H       1  LIG   0.1094   0.0000 
22    H3       4.3189   -9.9764   -0.0498 H       1  LIG   0.1050   0.0000 
23    H4       6.6686   -7.5772   -1.4013 H       1  LIG   0.1072   0.0000 
24    H5       5.8873   -9.1651   -1.6078 H       1  LIG   0.1038   0.0000 
25    H6       4.9707   -7.6664   -2.0038 H       1  LIG   0.1096   0.0000 
26    H7       4.2209   -6.1931   -0.1678 H       1  LIG   0.1191   0.0000 
27    H8       4.3881   -6.7464    1.5049 H       1  LIG   0.1046   0.0000 
28    H9       6.9318   -6.3539    1.3288 H       1  LIG   0.0588   0.0000 
29    H10      6.6419   -5.6491   -0.2638 H       1  LIG   0.0852   0.0000 
30    H11      5.5381   -5.5166    3.0882 H       1  LIG   0.0379   0.0000 
31    H12      3.8330   -4.8871    4.5497 H       1  LIG   0.1290   0.1500 
32    H13      2.0895   -3.3066    5.2461 H       1  LIG   0.1559   0.1500 
33    H14      3.6359   -0.3738    2.4869 H       1  LIG   0.1597   0.1500 
34    H15      5.3827   -1.9512    1.7861 H       1  LIG   0.1618   0.1500 
35    H16      6.8998   -5.2049    5.1160 H       1  LIG   0.1429   0.1500 
36    H17      9.1080   -4.5211    6.0091 H       1  LIG   0.1528   0.1500 
37    H18     10.5938   -3.0686    4.6304 H       1  LIG   0.1595   0.1500 
38    H19      9.7832   -2.3528    2.3772 H       1  LIG   0.0349   0.1500 
39    N2       5.2160   -8.0598    0.0696 N.4     1  LIG  -0.6749  -0.9590 
40    H20      5.9606   -8.4373    0.6714 H       1  LIG   0.4473   0.4500 
@<TRIPOS>BOND
1     1     20    1
2     1     21    1
3     1     22    1
4     1     39    1
5     2     23    1
6     2     24    1
7     2     25    1
8     2     39    1
9     3     4     1
10    3     26    1
11    3     27    1
12    3     39    1
13    4     5     1
14    4     28    1
15    4     29    1
16    5     6     1
17    6     7     1
18    6     14    1
19    6     30    1
20    7     12    ar
21    7     8     ar
22    8     9     ar
23    8     31    1
24    9     10    ar
25    9     32    1
26    10    11    ar
27    10    13    1
28    11    12    ar
29    11    33    1
30    12    34    1
31    14    19    ar
32    14    15    ar
33    15    16    ar
34    15    35    1
35    16    17    ar
36    16    36    1
37    17    18    ar
38    17    37    1
39    18    19    ar
40    18    38    1
41    39    40    1
@<TRIPOS>SUBSTRUCTURE
1   LIG    1    
 
########## Number      : 520
########## Name        : ZINC00002045
########## Description : AM1BCC_CHARGES =   1.0000 ORIGINAL_CHARGES =   1.0000

@<TRIPOS>MOLECULE
ZINC00002045
49    51    1     0     0    
SMALL
USER_CHARGES
****
****
@<TRIPOS>ATOM
1     C1       2.1849   -7.0098   -4.3789 C.3     1  LIG   0.0780   0.3001 
2     N1       2.3266   -7.3532   -2.9781 N.am    1  LIG  -0.4943  -0.4201 
3     C2       1.9402   -8.5586   -2.4455 C.2     1  LIG   0.6996   0.5690 
4     O1       1.4763   -9.5266   -3.0307 O.2     1  LIG  -0.5360  -0.5700 
5     C3       2.1327   -8.4914   -0.9562 C.3     1  LIG  -0.1700   0.0610 
6     C4       2.9519   -7.2100   -0.7210 C.3     1  LIG  -0.1487   0.0610 
7     C5       2.8323   -6.4755   -2.0466 C.2     1  LIG   0.7006   0.5690 
8     O2       3.1720   -5.3150   -2.2339 O.2     1  LIG  -0.5651  -0.5700 
9     C6       2.3884   -6.3539    0.4201 C.3     1  LIG  -0.1003   0.0000 
10    C7       2.6391   -6.9730    1.7880 C.3     1  LIG   0.1144   0.5030 
11    C8       4.6974   -8.1024    0.9199 C.3     1  LIG   0.1122   0.5030 
12    C9       4.4383   -7.5162   -0.4640 C.3     1  LIG  -0.1032   0.0000 
13    C10      4.4244   -7.6589    3.3939 C.3     1  LIG   0.1110   0.5030 
14    C11      5.8896   -7.4200    3.7478 C.3     1  LIG  -0.1059   0.0000 
15    C12      6.1640   -7.7768    5.2114 C.3     1  LIG  -0.1822   0.0610 
16    C13      7.6196   -7.5511    5.5913 C.2     1  LIG   0.5889   0.4228 
17    O3       8.4434   -7.1223    4.7864 O.2     1  LIG  -0.5376  -0.5700 
18    C14      8.0545   -7.8611    6.9857 C.ar    1  LIG  -0.2108   0.0862 
19    C15      7.1612   -8.3449    7.9507 C.ar    1  LIG  -0.0645  -0.1500 
20    C16      7.6091   -8.6223    9.2441 C.ar    1  LIG  -0.1804  -0.1500 
21    C17      8.9451   -8.4162    9.5693 C.ar    1  LIG   0.1811   0.1900 
22    C18      9.8446   -7.9368    8.6246 C.ar    1  LIG  -0.1772  -0.1500 
23    C19      9.3996   -7.6588    7.3315 C.ar    1  LIG  -0.0353  -0.1500 
24    F1       9.3712   -8.6835   10.8114 F       1  LIG  -0.1169  -0.1900 
25    H1       1.9071   -7.8847   -4.9716 H       1  LIG   0.0860   0.0000 
26    H2       1.4105   -6.2421   -4.4688 H       1  LIG   0.0598   0.0000 
27    H3       3.1280   -6.5909   -4.7418 H       1  LIG   0.0664   0.0000 
28    H4       1.1411   -8.4414   -0.4933 H       1  LIG   0.0950   0.0000 
29    H5       2.6392   -9.3978   -0.6136 H       1  LIG   0.0909   0.0000 
30    H6       2.8427   -5.3540    0.3965 H       1  LIG   0.0984   0.0000 
31    H7       1.3116   -6.1937    0.2827 H       1  LIG   0.1069   0.0000 
32    H8       2.3003   -6.2917    2.5755 H       1  LIG   0.1064   0.0000 
33    H9       2.1443   -7.9430    1.9065 H       1  LIG   0.1006   0.0000 
34    H10      5.7745   -8.1831    1.0867 H       1  LIG   0.1133   0.0000 
35    H11      4.2378   -9.0876    1.0489 H       1  LIG   0.0997   0.0000 
36    H12      4.8262   -8.2041   -1.2262 H       1  LIG   0.1080   0.0000 
37    H13      5.0262   -6.5938   -0.5694 H       1  LIG   0.0961   0.0000 
38    H14      3.7842   -7.0780    4.0672 H       1  LIG   0.1001   0.0000 
39    H15      4.1456   -8.7162    3.4592 H       1  LIG   0.1011   0.0000 
40    H16      6.5446   -8.0209    3.1076 H       1  LIG   0.0806   0.0000 
41    H17      6.1504   -6.3689    3.5712 H       1  LIG   0.0820   0.0000 
42    H18      5.5354   -7.1534    5.8572 H       1  LIG   0.0795   0.0000 
43    H19      5.9203   -8.8327    5.3738 H       1  LIG   0.0796   0.0000 
44    H20      6.1125   -8.5158    7.7278 H       1  LIG   0.1292   0.1500 
45    H21      6.9187   -8.9972    9.9936 H       1  LIG   0.1625   0.1500 
46    H22     10.8850   -7.7803    8.8917 H       1  LIG   0.1684   0.1500 
47    H23     10.1164   -7.2845    6.6046 H       1  LIG   0.1666   0.1500 
48    N2       4.1264   -7.1871    1.9807 N.4     1  LIG  -0.6871  -0.9590 
49    H24      4.5752   -6.2667    1.8722 H       1  LIG   0.4526   0.4500 
@<TRIPOS>BOND
1     1     2     1
2     1     25    1
3     1     26    1
4     1     27    1
5     2     7     am
6     2     3     am
7     3     4     2
8     3     5     1
9     5     6     1
10    5     28    1
11    5     29    1
12    6     12    1
13    6     7     1
14    6     9     1
15    7     8     2
16    9     10    1
17    9     30    1
18    9     31    1
19    10    32    1
20    10    33    1
21    10    48    1
22    11    12    1
23    11    34    1
24    11    35    1
25    11    48    1
26    12    36    1
27    12    37    1
28    13    14    1
29    13    38    1
30    13    39    1
31    13    48    1
32    14    15    1
33    14    40    1
34    14    41    1
35    15    16    1
36    15    42    1
37    15    43    1
38    16    17    2
39    16    18    1
40    18    23    ar
41    18    19    ar
42    19    20    ar
43    19    44    1
44    20    21    ar
45    20    45    1
46    21    22    ar
47    21    24    1
48    22    23    ar
49    22    46    1
50    23    47    1
51    48    49    1
@<TRIPOS>SUBSTRUCTURE
1   LIG    1    
 
########## Number      : 521
########## Name        : ZINC00002050
########## Description : AM1BCC_CHARGES =  -0.0000 ORIGINAL_CHARGES =  -0.0000

@<TRIPOS>MOLECULE
ZINC00002050
22    23    1     0     0    
SMALL
USER_CHARGES
****
****
@<TRIPOS>ATOM
1     C1       5.6512  -10.5090    0.7744 C.2     1  LIG  -0.2194  -0.3000 
2     C2       5.2293   -9.7181   -0.2191 C.2     1  LIG  -0.1623  -0.2882 
3     C3       5.3423   -8.2218   -0.2061 C.3     1  LIG  -0.0068   0.2817 
4     C4       3.9947   -7.5426   -0.2474 C.ar    1  LIG  -0.0749  -0.1435 
5     C5       3.2844   -7.3055    0.9520 C.ar    1  LIG  -0.1263  -0.1500 
6     C6       2.0271   -6.6951    0.9361 C.ar    1  LIG  -0.1103  -0.1500 
7     C7       1.5033   -6.3383   -0.2879 C.ar    1  LIG   0.0524   0.0825 
8     C8       2.1825   -6.5704   -1.4607 C.ar    1  LIG   0.0558   0.0825 
9     C9       3.4252   -7.1711   -1.4758 C.ar    1  LIG  -0.1107  -0.1500 
10    O1       1.4893   -6.1468   -2.5527 O.3     1  LIG  -0.3356  -0.3625 
11    C10      0.2976   -5.6204   -1.9340 C.3     1  LIG   0.3213   0.5600 
12    O2       0.2994   -5.7393   -0.4966 O.3     1  LIG  -0.3346  -0.3625 
13    H1       5.5469  -11.5863    0.7022 H       1  LIG   0.1140   0.1500 
14    H2       6.1037  -10.1018    1.6720 H       1  LIG   0.1104   0.1500 
15    H3       4.7882  -10.1792   -1.0997 H       1  LIG   0.1242   0.1500 
16    H4       5.8937   -7.8721    0.6762 H       1  LIG   0.0533   0.0000 
17    H5       5.9403   -7.9050   -1.0699 H       1  LIG   0.0575   0.0000 
18    H6       3.7161   -7.6008    1.9059 H       1  LIG   0.1395   0.1500 
19    H7       1.4854   -6.5128    1.8573 H       1  LIG   0.1547   0.1500 
20    H8       3.9418   -7.3494   -2.4131 H       1  LIG   0.1547   0.1500 
21    H9       0.2037   -4.5609   -2.1983 H       1  LIG   0.0712   0.0000 
22    H10     -0.5706   -6.1600   -2.3295 H       1  LIG   0.0719   0.0000 
@<TRIPOS>BOND
1     1     2     2
2     1     13    1
3     1     14    1
4     2     3     1
5     2     15    1
6     3     4     1
7     3     16    1
8     3     17    1
9     4     9     ar
10    4     5     ar
11    5     6     ar
12    5     18    1
13    6     7     ar
14    6     19    1
15    7     12    1
16    7     8     ar
17    8     9     ar
18    8     10    1
19    9     20    1
20    10    11    1
21    11    12    1
22    11    21    1
23    11    22    1
@<TRIPOS>SUBSTRUCTURE
1   LIG    1    
 
########## Number      : 522
########## Name        : ZINC00002051
########## Description : AM1BCC_CHARGES =  -0.0002 ORIGINAL_CHARGES =   0.0000

@<TRIPOS>MOLECULE
ZINC00002051
22    22    1     0     0    
SMALL
USER_CHARGES
****
****
@<TRIPOS>ATOM
1     C1       7.8467   -2.3273    4.9983 C.3     1  LIG  -0.1814   0.0610 
2     C2       6.8825   -2.3133    3.8418 C.2     1  LIG   0.6604   0.5690 
3     O1       6.7067   -1.3100    3.1573 O.2     1  LIG  -0.5241  -0.5700 
4     N1       6.2410   -3.5393    3.6841 N.am    1  LIG  -0.6074  -0.4900 
5     C3       5.3125   -3.8229    2.6864 C.2     1  LIG   0.6871   0.5438 
6     O2       5.0043   -3.0709    1.7665 O.2     1  LIG  -0.5603  -0.5700 
7     C4       4.7007   -5.1775    2.7424 C.ar    1  LIG  -0.2451   0.0862 
8     C5       4.4200   -5.7764    3.9788 C.ar    1  LIG  -0.0697  -0.1500 
9     C6       3.8436   -7.0479    4.0305 C.ar    1  LIG  -0.1768  -0.1500 
10    C7       3.5371   -7.7274    2.8532 C.ar    1  LIG  -0.0702  -0.1500 
11    C8       3.7973   -7.1341    1.6194 C.ar    1  LIG  -0.1711  -0.1500 
12    C9       4.3688   -5.8617    1.5637 C.ar    1  LIG   0.1994   0.0825 
13    O3       4.5873   -5.3503    0.3127 O.3     1  LIG  -0.4985  -0.5325 
14    H1       6.4855   -4.2740    4.3408 H       1  LIG   0.3182   0.3700 
15    H2       4.8774   -4.4245    0.3950 H       1  LIG   0.4590   0.4500 
16    H3       8.3988   -1.3840    5.0300 H       1  LIG   0.0842   0.0000 
17    H4       7.2959   -2.4511    5.9348 H       1  LIG   0.0644   0.0000 
18    H5       8.5595   -3.1487    4.8821 H       1  LIG   0.0622   0.0000 
19    H6       4.6222   -5.2658    4.9165 H       1  LIG   0.1316   0.1500 
20    H7       3.6284   -7.5064    4.9918 H       1  LIG   0.1395   0.1500 
21    H8       3.0890   -8.7160    2.8969 H       1  LIG   0.1401   0.1500 
22    H9       3.5496   -7.6653    0.7042 H       1  LIG   0.1583   0.1500 
@<TRIPOS>BOND
1     1     2     1
2     1     16    1
3     1     17    1
4     1     18    1
5     2     3     2
6     2     4     am
7     4     5     am
8     4     14    1
9     5     6     2
10    5     7     1
11    7     12    ar
12    7     8     ar
13    8     9     ar
14    8     19    1
15    9     10    ar
16    9     20    1
17    10    11    ar
18    10    21    1
19    11    12    ar
20    11    22    1
21    12    13    1
22    13    15    1
@<TRIPOS>SUBSTRUCTURE
1   LIG    1    
 
########## Number      : 523
########## Name        : ZINC00002054
########## Description : AM1BCC_CHARGES =  -0.0001 ORIGINAL_CHARGES =   0.0000

@<TRIPOS>MOLECULE
ZINC00002054
17    17    1     0     0    
SMALL
USER_CHARGES
****
****
@<TRIPOS>ATOM
1     C1       6.4584   -9.0577   -0.5131 C.ar    1  LIG  -0.1626  -0.1500 
2     C2       6.3367  -10.3443   -1.0284 C.ar    1  LIG  -0.0945  -0.1500 
3     C3       5.0731  -10.9018   -1.2027 C.ar    1  LIG  -0.1564  -0.1500 
4     C4       3.9315  -10.1684   -0.8671 C.ar    1  LIG   0.1335   0.0825 
5     C5       4.0286   -8.8555   -0.3785 C.ar    1  LIG  -0.2117  -0.1435 
6     C6       5.3156   -8.3235   -0.1852 C.ar    1  LIG  -0.0862  -0.1500 
7     C7       2.8087   -8.0472   -0.0092 C.3     1  LIG   0.1769   0.4235 
8     O1       3.0275   -6.6419   -0.0790 O.3     1  LIG  -0.5896  -0.6800 
9     O2       2.7364  -10.8142   -1.0398 O.3     1  LIG  -0.4986  -0.5325 
10    H1       3.3881   -6.4440   -0.9605 H       1  LIG   0.4045   0.4000 
11    H2       2.0249  -10.3150   -0.6094 H       1  LIG   0.4195   0.4500 
12    H3       7.4428   -8.6234   -0.3631 H       1  LIG   0.1359   0.1500 
13    H4       7.2242  -10.9156   -1.2841 H       1  LIG   0.1358   0.1500 
14    H5       4.9808  -11.9130   -1.5902 H       1  LIG   0.1514   0.1500 
15    H6       5.4448   -7.3245    0.2251 H       1  LIG   0.1446   0.1500 
16    H7       1.9783   -8.2609   -0.6890 H       1  LIG   0.0228   0.0000 
17    H8       2.5002   -8.2947    1.0112 H       1  LIG   0.0746   0.0000 
@<TRIPOS>BOND
1     1     6     ar
2     1     2     ar
3     1     12    1
4     2     3     ar
5     2     13    1
6     3     4     ar
7     3     14    1
8     4     5     ar
9     4     9     1
10    5     6     ar
11    5     7     1
12    6     15    1
13    7     8     1
14    7     16    1
15    7     17    1
16    8     10    1
17    9     11    1
@<TRIPOS>SUBSTRUCTURE
1   LIG    1    
 
########## Number      : 524
########## Name        : ZINC00002055
########## Description : AM1BCC_CHARGES =  -0.0001 ORIGINAL_CHARGES =   0.0000

@<TRIPOS>MOLECULE
ZINC00002055
17    17    1     0     0    
SMALL
USER_CHARGES
****
****
@<TRIPOS>ATOM
1     C1       6.3962   -9.0022   -0.2378 C.ar    1  LIG  -0.1797  -0.1500 
2     C2       6.7437   -8.5173   -1.4967 C.ar    1  LIG  -0.0716  -0.1500 
3     C3       5.7620   -8.3449   -2.4699 C.ar    1  LIG  -0.1745  -0.1500 
4     C4       4.4323   -8.6617   -2.1843 C.ar    1  LIG   0.2009   0.0825 
5     C5       4.0722   -9.1676   -0.9257 C.ar    1  LIG  -0.2351   0.0862 
6     C6       5.0671   -9.3238    0.0502 C.ar    1  LIG  -0.0677  -0.1500 
7     C7       2.6560   -9.5061   -0.6228 C.2     1  LIG   0.6827   0.5438 
8     O1       1.7432   -8.9385   -1.2155 O.2     1  LIG  -0.6455  -0.5700 
9     N1       2.4385  -10.4893    0.3147 N.am    1  LIG  -0.6636  -0.8000 
10    O2       3.5343   -8.4593   -3.1981 O.3     1  LIG  -0.5034  -0.5325 
11    H1       1.4896  -10.7571    0.5530 H       1  LIG   0.3212   0.3700 
12    H2       3.1794  -11.0121    0.7673 H       1  LIG   0.3110   0.3700 
13    H3       2.6358   -8.6268   -2.8624 H       1  LIG   0.4624   0.4500 
14    H4       7.1604   -9.1258    0.5247 H       1  LIG   0.1378   0.1500 
15    H5       7.7777   -8.2682   -1.7173 H       1  LIG   0.1382   0.1500 
16    H6       6.0366   -7.9607   -3.4487 H       1  LIG   0.1563   0.1500 
17    H7       4.8330   -9.6759    1.0509 H       1  LIG   0.1305   0.1500 
@<TRIPOS>BOND
1     1     6     ar
2     1     2     ar
3     1     14    1
4     2     3     ar
5     2     15    1
6     3     4     ar
7     3     16    1
8     4     5     ar
9     4     10    1
10    5     6     ar
11    5     7     1
12    6     17    1
13    7     8     2
14    7     9     am
15    9     11    1
16    9     12    1
17    10    13    1
@<TRIPOS>SUBSTRUCTURE
1   LIG    1    
 
########## Number      : 525
########## Name        : ZINC00002057
########## Description : AM1BCC_CHARGES =  -0.0001 ORIGINAL_CHARGES =   0.0000

@<TRIPOS>MOLECULE
ZINC00002057
27    28    1     0     0    
SMALL
USER_CHARGES
****
****
@<TRIPOS>ATOM
1     C1       4.6697   -9.3945   -0.6933 C.ar    1  LIG  -0.1546  -0.1500 
2     C2       3.5878   -9.1924    0.1583 C.ar    1  LIG  -0.1041  -0.1500 
3     C3       3.1086   -7.9001    0.3830 C.ar    1  LIG  -0.1825  -0.1500 
4     C4       3.7043   -6.7947   -0.2428 C.ar    1  LIG   0.0659   0.1170 
5     C5       4.7927   -7.0086   -1.0938 C.ar    1  LIG  -0.1524  -0.1500 
6     C6       5.2710   -8.3041   -1.3172 C.ar    1  LIG  -0.1053  -0.1500 
7     N1       3.1543   -5.5223    0.0449 N.am    1  LIG  -0.4595  -0.5470 
8     C7       3.5424   -4.3004   -0.4853 C.2     1  LIG   0.6908   0.5438 
9     O1       4.3891   -4.0972   -1.3488 O.2     1  LIG  -0.6180  -0.5700 
10    C8       2.7997   -3.1243    0.0457 C.ar    1  LIG  -0.2402   0.0862 
11    C9       2.4524   -3.0641    1.4029 C.ar    1  LIG  -0.0706  -0.1500 
12    C10      1.7584   -1.9600    1.9033 C.ar    1  LIG  -0.1761  -0.1500 
13    C11      1.4126   -0.9075    1.0579 C.ar    1  LIG  -0.0717  -0.1500 
14    C12      1.7674   -0.9507   -0.2891 C.ar    1  LIG  -0.1711  -0.1500 
15    C13      2.4653   -2.0501   -0.7917 C.ar    1  LIG   0.1974   0.0825 
16    O2       2.7797   -2.0124   -2.1235 O.3     1  LIG  -0.5000  -0.5325 
17    H1       2.3718   -5.5320    0.6932 H       1  LIG   0.3213   0.3700 
18    H2       3.3601   -2.7656   -2.3325 H       1  LIG   0.4576   0.4500 
19    H3       5.0448  -10.3983   -0.8698 H       1  LIG   0.1338   0.1500 
20    H4       3.1159  -10.0391    0.6484 H       1  LIG   0.1320   0.1500 
21    H5       2.2618   -7.7686    1.0530 H       1  LIG   0.1280   0.1500 
22    H6       5.3015   -6.1958   -1.5990 H       1  LIG   0.1729   0.1500 
23    H7       6.1176   -8.4595   -1.9804 H       1  LIG   0.1353   0.1500 
24    H8       2.7278   -3.8567    2.0938 H       1  LIG   0.1346   0.1500 
25    H9       1.4918   -1.9192    2.9559 H       1  LIG   0.1395   0.1500 
26    H10      0.8726   -0.0503    1.4501 H       1  LIG   0.1395   0.1500 
27    H11      1.5017   -0.1237   -0.9423 H       1  LIG   0.1574   0.1500 
@<TRIPOS>BOND
1     1     6     ar
2     1     2     ar
3     1     19    1
4     2     3     ar
5     2     20    1
6     3     4     ar
7     3     21    1
8     4     5     ar
9     4     7     1
10    5     6     ar
11    5     22    1
12    6     23    1
13    7     8     am
14    7     17    1
15    8     9     2
16    8     10    1
17    10    15    ar
18    10    11    ar
19    11    12    ar
20    11    24    1
21    12    13    ar
22    12    25    1
23    13    14    ar
24    13    26    1
25    14    15    ar
26    14    27    1
27    15    16    1
28    16    18    1
@<TRIPOS>SUBSTRUCTURE
1   LIG    1    
 
########## Number      : 526
########## Name        : ZINC00002058
########## Description : AM1BCC_CHARGES =   0.0001 ORIGINAL_CHARGES =   0.0000

@<TRIPOS>MOLECULE
ZINC00002058
18    18    1     0     0    
SMALL
USER_CHARGES
****
****
@<TRIPOS>ATOM
1     C1       4.4179   -8.1499    0.5029 C.ar    1  LIG  -0.1758  -0.1500 
2     C2       4.8734   -6.9386    1.0216 C.ar    1  LIG  -0.0658  -0.1500 
3     C3       4.8046   -5.7779    0.2515 C.ar    1  LIG  -0.2240  -0.1500 
4     C4       4.2769   -5.8307   -1.0407 C.ar    1  LIG   0.1756   0.0825 
5     C5       3.8136   -7.0427   -1.5664 C.ar    1  LIG  -0.1851   0.0862 
6     C6       3.8905   -8.2058   -0.7885 C.ar    1  LIG  -0.0604  -0.1500 
7     C7       3.2733   -7.1146   -2.9461 C.2     1  LIG   0.6133   0.5438 
8     O1       3.8155   -6.5017   -3.8601 O.2     1  LIG  -0.5370  -0.5700 
9     N1       2.1506   -7.8929   -3.0887 N.am    1  LIG  -0.3509  -0.3945 
10    O2       1.5876   -7.9832   -4.3719 O.3     1  LIG  -0.4398  -0.4355 
11    O3       4.1919   -4.6837   -1.7811 O.3     1  LIG  -0.4760  -0.5325 
12    H1       1.6459   -8.3590   -2.3432 H       1  LIG   0.2961   0.3700 
13    H2       1.9973   -7.2288   -4.8315 H       1  LIG   0.4349   0.4000 
14    H3       4.5678   -3.9476   -1.2692 H       1  LIG   0.4254   0.4500 
15    H4       4.4790   -9.0535    1.1031 H       1  LIG   0.1413   0.1500 
16    H5       5.2839   -6.8993    2.0268 H       1  LIG   0.1383   0.1500 
17    H6       5.1615   -4.8411    0.6705 H       1  LIG   0.1404   0.1500 
18    H7       3.5625   -9.1666   -1.1767 H       1  LIG   0.1496   0.1500 
@<TRIPOS>BOND
1     1     6     ar
2     1     2     ar
3     1     15    1
4     2     3     ar
5     2     16    1
6     3     4     ar
7     3     17    1
8     4     5     ar
9     4     11    1
10    5     6     ar
11    5     7     1
12    6     18    1
13    7     8     2
14    7     9     am
15    9     10    1
16    9     12    1
17    10    13    1
18    11    14    1
@<TRIPOS>SUBSTRUCTURE
1   LIG    1    
 
########## Number      : 527
########## Name        : ZINC00002059
########## Description : AM1BCC_CHARGES =   0.0002 ORIGINAL_CHARGES =   0.0000

@<TRIPOS>MOLECULE
ZINC00002059
34    35    1     0     0    
SMALL
USER_CHARGES
****
****
@<TRIPOS>ATOM
1     C1       4.8499   -5.2593    3.0400 C.3     1  LIG  -0.0999   0.0000 
2     C2       3.6569   -5.2448    2.1010 C.3     1  LIG   0.1282   0.2800 
3     O1       3.7917   -6.3452    1.2022 O.3     1  LIG  -0.3312  -0.3625 
4     C3       2.8070   -6.5064    0.2653 C.ar    1  LIG   0.1064   0.0825 
5     C4       1.6822   -5.6959    0.1101 C.ar    1  LIG  -0.1812  -0.1500 
6     C5       0.7420   -5.9684   -0.8936 C.ar    1  LIG  -0.1166  -0.1500 
7     C6       0.9152   -7.0536   -1.7558 C.ar    1  LIG   0.0286   0.1170 
8     C7       2.0443   -7.8660   -1.5932 C.ar    1  LIG  -0.1481  -0.1500 
9     C8       2.9809   -7.5936   -0.5928 C.ar    1  LIG  -0.1324  -0.1500 
10    N1       0.0166   -7.4025   -2.7923 N.am    1  LIG  -0.4556  -0.5470 
11    C9      -1.1348   -6.7261   -3.1683 C.2     1  LIG   0.6895   0.5438 
12    O2      -1.5573   -5.6663   -2.7188 O.2     1  LIG  -0.6232  -0.5700 
13    C10     -1.9020   -7.3640   -4.2734 C.ar    1  LIG  -0.2392   0.0862 
14    C11     -2.0244   -8.7596   -4.3325 C.ar    1  LIG  -0.0709  -0.1500 
15    C12     -2.7464   -9.3594   -5.3669 C.ar    1  LIG  -0.1762  -0.1500 
16    C13     -3.3561   -8.5740   -6.3434 C.ar    1  LIG  -0.0723  -0.1500 
17    C14     -3.2538   -7.1854   -6.2841 C.ar    1  LIG  -0.1712  -0.1500 
18    C15     -2.5372   -6.5822   -5.2493 C.ar    1  LIG   0.1968   0.0825 
19    O3      -2.4891   -5.2141   -5.2613 O.3     1  LIG  -0.5004  -0.5325 
20    H1       0.2781   -8.2279   -3.3246 H       1  LIG   0.3208   0.3700 
21    H2      -2.0688   -4.9056   -4.4391 H       1  LIG   0.4576   0.4500 
22    H3       4.7950   -4.4319    3.7529 H       1  LIG   0.0452   0.0000 
23    H4       4.8921   -6.2023    3.5950 H       1  LIG   0.0510   0.0000 
24    H5       5.7853   -5.1791    2.4762 H       1  LIG   0.0507   0.0000 
25    H6       2.7377   -5.3446    2.6895 H       1  LIG   0.0383   0.0000 
26    H7       3.6501   -4.2992    1.5466 H       1  LIG   0.0386   0.0000 
27    H8       1.4998   -4.8404    0.7533 H       1  LIG   0.1409   0.1500 
28    H9      -0.1153   -5.3081   -0.9619 H       1  LIG   0.1744   0.1500 
29    H10      2.2120   -8.7215   -2.2436 H       1  LIG   0.1309   0.1500 
30    H11      3.8500   -8.2388   -0.4883 H       1  LIG   0.1503   0.1500 
31    H12     -1.5814   -9.3997   -3.5739 H       1  LIG   0.1348   0.1500 
32    H13     -2.8374  -10.4414   -5.4075 H       1  LIG   0.1393   0.1500 
33    H14     -3.9168   -9.0435   -7.1466 H       1  LIG   0.1392   0.1500 
34    H15     -3.7375   -6.5774   -7.0441 H       1  LIG   0.1571   0.1500 
@<TRIPOS>BOND
1     1     2     1
2     1     22    1
3     1     23    1
4     1     24    1
5     2     3     1
6     2     25    1
7     2     26    1
8     3     4     1
9     4     9     ar
10    4     5     ar
11    5     6     ar
12    5     27    1
13    6     7     ar
14    6     28    1
15    7     8     ar
16    7     10    1
17    8     9     ar
18    8     29    1
19    9     30    1
20    10    11    am
21    10    20    1
22    11    12    2
23    11    13    1
24    13    18    ar
25    13    14    ar
26    14    15    ar
27    14    31    1
28    15    16    ar
29    15    32    1
30    16    17    ar
31    16    33    1
32    17    18    ar
33    17    34    1
34    18    19    1
35    19    21    1
@<TRIPOS>SUBSTRUCTURE
1   LIG    1    
 
########## Number      : 528
########## Name        : ZINC00002062
########## Description : AM1BCC_CHARGES =  -0.9999 ORIGINAL_CHARGES =  -1.0000

@<TRIPOS>MOLECULE
ZINC00002062
28    29    1     0     0    
SMALL
USER_CHARGES
****
****
@<TRIPOS>ATOM
1     C1       8.0055   -7.4798    1.7797 C.ar    1  LIG  -0.1856  -0.1500 
2     C2       7.8156   -8.8230    1.4575 C.ar    1  LIG  -0.0862  -0.1500 
3     C3       6.5662   -9.2691    1.0265 C.ar    1  LIG  -0.2475  -0.1500 
4     C4       5.5049   -8.3675    0.9192 C.ar    1  LIG   0.1542   0.0825 
5     C5       5.6883   -7.0192    1.2443 C.ar    1  LIG  -0.1370   0.0862 
6     C6       6.9465   -6.5769    1.6728 C.ar    1  LIG  -0.0281  -0.1500 
7     C7       4.5735   -6.0558    1.1091 C.2     1  LIG   0.6846   0.6338 
8     O1       3.7717   -6.0652    0.1893 O.2     1  LIG  -0.5279  -0.5700 
9     O2       4.6017   -5.2103    2.2044 O.3     1  LIG  -0.3413  -0.2325 
10    C8       3.5608   -4.2710    2.2194 C.ar    1  LIG   0.1211   0.0825 
11    C9       2.2817   -4.7126    2.5804 C.ar    1  LIG  -0.1539  -0.1500 
12    C10      1.2375   -3.7969    2.6703 C.ar    1  LIG  -0.1489  -0.1500 
13    C11      1.4757   -2.4477    2.4184 C.ar    1  LIG  -0.1629  -0.1500 
14    C12      2.7601   -2.0108    2.0796 C.ar    1  LIG  -0.1034  -0.1500 
15    C13      3.8301   -2.9153    1.9768 C.ar    1  LIG  -0.1138  -0.1790 
16    C14      5.2004   -2.4042    1.6226 C.2     1  LIG   0.9209   0.9790 
17    O3       5.9516   -3.1611    0.9332 O.co2   1  LIG  -0.8409  -0.9000 
18    O4       4.2773   -8.8150    0.5145 O.3     1  LIG  -0.4832  -0.5325 
19    H1       4.3358   -9.7655    0.3192 H       1  LIG   0.4077   0.4500 
20    H2       8.9808   -7.1336    2.1105 H       1  LIG   0.1340   0.1500 
21    H3       8.6424   -9.5227    1.5413 H       1  LIG   0.1173   0.1500 
22    H4       6.4332  -10.3191    0.7811 H       1  LIG   0.1203   0.1500 
23    H5       7.1222   -5.5316    1.9147 H       1  LIG   0.2294   0.1500 
24    H6       2.0993   -5.7622    2.7921 H       1  LIG   0.1253   0.1500 
25    H7       0.2410   -4.1322    2.9420 H       1  LIG   0.1068   0.1500 
26    H8       0.6629   -1.7306    2.4902 H       1  LIG   0.1072   0.1500 
27    H9       2.9174   -0.9506    1.8927 H       1  LIG   0.1570   0.1500 
28    O5       5.4996   -1.2394    2.0340 O.co2   1  LIG  -0.8251  -0.9000 
@<TRIPOS>BOND
1     1     6     ar
2     1     2     ar
3     1     20    1
4     2     3     ar
5     2     21    1
6     3     4     ar
7     3     22    1
8     4     5     ar
9     4     18    1
10    5     6     ar
11    5     7     1
12    6     23    1
13    7     8     2
14    7     9     1
15    9     10    1
16    10    15    ar
17    10    11    ar
18    11    12    ar
19    11    24    1
20    12    13    ar
21    12    25    1
22    13    14    ar
23    13    26    1
24    14    15    ar
25    14    27    1
26    15    16    1
27    16    17    2
28    16    28    1
29    18    19    1
@<TRIPOS>SUBSTRUCTURE
1   LIG    1    
 
########## Number      : 529
########## Name        : ZINC00002069
########## Description : AM1BCC_CHARGES =  -0.0002 ORIGINAL_CHARGES =   0.0000

@<TRIPOS>MOLECULE
ZINC00002069
34    35    1     0     0    
SMALL
USER_CHARGES
****
****
@<TRIPOS>ATOM
1     C1       4.6287   -9.3678   -1.6083 C.3     1  LIG   0.1584   0.3691 
2     N1       3.7141   -8.9512   -0.5483 N.pl3   1  LIG  -0.3244  -0.4271 
3     C2       3.3278   -9.8625    0.4563 C.ar    1  LIG   0.1532   0.1000 
4     C3       3.9377  -11.1233    0.6028 C.ar    1  LIG  -0.1713  -0.1500 
5     C4       3.5524  -12.0150    1.6110 C.ar    1  LIG  -0.1109  -0.1500 
6     C5       2.5474  -11.6678    2.5058 C.ar    1  LIG  -0.1489  -0.1500 
7     C6       1.9300  -10.4281    2.3939 C.ar    1  LIG  -0.1154  -0.1500 
8     C7       2.3173   -9.5390    1.3852 C.ar    1  LIG  -0.1330  -0.1500 
9     N2       3.0046   -7.7926   -0.6831 N.2     1  LIG  -0.1431  -0.0420 
10    N3       3.7791   -6.8504   -0.9543 N.2     1  LIG  -0.1444  -0.0420 
11    N4       3.0695   -5.6918   -1.0887 N.pl3   1  LIG  -0.3235  -0.4271 
12    C8       2.1565   -5.2747   -0.0275 C.3     1  LIG   0.1578   0.3691 
13    C9       3.4552   -4.7806   -2.0936 C.ar    1  LIG   0.1512   0.1000 
14    C10      4.4641   -5.1046   -3.0239 C.ar    1  LIG  -0.1323  -0.1500 
15    C11      4.8509   -4.2156   -4.0329 C.ar    1  LIG  -0.1157  -0.1500 
16    C12      4.2344   -2.9754   -4.1437 C.ar    1  LIG  -0.1486  -0.1500 
17    C13      3.2309   -2.6276   -3.2474 C.ar    1  LIG  -0.1110  -0.1500 
18    C14      2.8462   -3.5192   -2.2390 C.ar    1  LIG  -0.1708  -0.1500 
19    H1       4.7564   -8.5983   -2.3775 H       1  LIG   0.0673   0.0000 
20    H2       5.6220   -9.5819   -1.1994 H       1  LIG   0.0324   0.0000 
21    H3       4.2485  -10.2582   -2.1217 H       1  LIG   0.0565   0.0000 
22    H4       4.7336  -11.4440   -0.0645 H       1  LIG   0.1342   0.1500 
23    H5       4.0432  -12.9808    1.6942 H       1  LIG   0.1323   0.1500 
24    H6       2.2488  -12.3590    3.2881 H       1  LIG   0.1326   0.1500 
25    H7       1.1457  -10.1464    3.0908 H       1  LIG   0.1329   0.1500 
26    H8       1.8069   -8.5796    1.3409 H       1  LIG   0.1483   0.1500 
27    H9       2.5384   -4.3851    0.4860 H       1  LIG   0.0566   0.0000 
28    H10      1.1631   -5.0592   -0.4352 H       1  LIG   0.0321   0.0000 
29    H11      2.0287   -6.0446    0.7413 H       1  LIG   0.0671   0.0000 
30    H12      4.9738   -6.0646   -2.9806 H       1  LIG   0.1487   0.1500 
31    H13      5.6339   -4.4978   -4.7310 H       1  LIG   0.1322   0.1500 
32    H14      4.5325   -2.2843   -4.9262 H       1  LIG   0.1331   0.1500 
33    H15      2.7408   -1.6614   -3.3297 H       1  LIG   0.1320   0.1500 
34    H16      2.0515   -3.1980   -1.5705 H       1  LIG   0.1342   0.1500 
@<TRIPOS>BOND
1     1     2     1
2     1     19    1
3     1     20    1
4     1     21    1
5     2     3     1
6     2     9     1
7     3     8     ar
8     3     4     ar
9     4     5     ar
10    4     22    1
11    5     6     ar
12    5     23    1
13    6     7     ar
14    6     24    1
15    7     8     ar
16    7     25    1
17    8     26    1
18    9     10    2
19    10    11    1
20    11    12    1
21    11    13    1
22    12    27    1
23    12    28    1
24    12    29    1
25    13    18    ar
26    13    14    ar
27    14    15    ar
28    14    30    1
29    15    16    ar
30    15    31    1
31    16    17    ar
32    16    32    1
33    17    18    ar
34    17    33    1
35    18    34    1
@<TRIPOS>SUBSTRUCTURE
1   LIG    1    
 
########## Number      : 530
########## Name        : ZINC00002070
########## Description : AM1BCC_CHARGES =  -0.0001 ORIGINAL_CHARGES =   0.0000

@<TRIPOS>MOLECULE
ZINC00002070
26    28    1     0     0    
SMALL
USER_CHARGES
****
****
@<TRIPOS>ATOM
1     C1       6.0116   -7.1578   -1.1840 C.ar    1  LIG  -0.1171  -0.1500 
2     C2       4.8158   -6.8689   -1.8354 C.ar    1  LIG  -0.1329  -0.1500 
3     C3       3.9249   -5.9360   -1.2917 C.ar    1  LIG   0.1437   0.0825 
4     C4       4.2044   -5.3025   -0.0689 C.ar    1  LIG  -0.1659  -0.1435 
5     C5       5.4222   -5.5932    0.5688 C.ar    1  LIG  -0.1203  -0.1500 
6     C6       6.3066   -6.5131    0.0099 C.ar    1  LIG   0.0964   0.1900 
7     F1       7.4602   -6.7815    0.6369 F       1  LIG  -0.1352  -0.1900 
8     C7       3.2256   -4.3152    0.5273 C.3     1  LIG   0.0687   0.5046 
9     C8       1.8645   -4.4208   -0.1709 C.3     1  LIG  -0.1045   0.0000 
10    C9       2.0679   -4.5336   -1.6724 C.3     1  LIG   0.1274   0.2800 
11    O1       2.7802   -5.7230   -2.0166 O.3     1  LIG  -0.3180  -0.3625 
12    C10      3.0043   -4.5185    2.0300 C.2     1  LIG   0.6982   0.5690 
13    O2       2.6004   -5.5352    2.5733 O.2     1  LIG  -0.5604  -0.5700 
14    N1       3.3457   -3.3342    2.6455 N.am    1  LIG  -0.6143  -0.4900 
15    C11      3.7922   -2.3913    1.7438 C.2     1  LIG   0.7797   0.6900 
16    O3       4.1752   -1.2599    2.0035 O.2     1  LIG  -0.5958  -0.5700 
17    N2       3.7375   -2.9693    0.4741 N.am    1  LIG  -0.5139  -0.7301 
18    H1       3.2917   -3.1784    3.6441 H       1  LIG   0.3609   0.3700 
19    H2       4.0323   -2.4894   -0.3701 H       1  LIG   0.3227   0.3700 
20    H3       6.7082   -7.8755   -1.6053 H       1  LIG   0.1569   0.1500 
21    H4       4.5825   -7.3662   -2.7734 H       1  LIG   0.1613   0.1500 
22    H5       5.6927   -5.1117    1.5046 H       1  LIG   0.1537   0.1500 
23    H6       1.3330   -5.3173    0.1765 H       1  LIG   0.0893   0.0000 
24    H7       1.2293   -3.5576    0.0629 H       1  LIG   0.0828   0.0000 
25    H8       1.0937   -4.5857   -2.1703 H       1  LIG   0.0836   0.0000 
26    H9       2.5945   -3.6639   -2.0841 H       1  LIG   0.0529   0.0000 
@<TRIPOS>BOND
1     1     6     ar
2     1     2     ar
3     1     20    1
4     2     3     ar
5     2     21    1
6     3     11    1
7     3     4     ar
8     4     5     ar
9     4     8     1
10    5     6     ar
11    5     22    1
12    6     7     1
13    8     17    1
14    8     9     1
15    8     12    1
16    9     10    1
17    9     23    1
18    9     24    1
19    10    11    1
20    10    25    1
21    10    26    1
22    12    13    2
23    12    14    am
24    14    15    am
25    14    18    1
26    15    16    2
27    15    17    am
28    17    19    1
@<TRIPOS>SUBSTRUCTURE
1   LIG    1    
 
########## Number      : 531
########## Name        : ZINC00002073
########## Description : AM1BCC_CHARGES =   1.0002 ORIGINAL_CHARGES =   1.0000

@<TRIPOS>MOLECULE
ZINC00002073
45    46    1     0     0    
SMALL
USER_CHARGES
****
****
@<TRIPOS>ATOM
1     C1       3.2150   -9.5140    0.8371 C.3     1  LIG  -0.0811   0.0000 
2     C2       2.5875   -8.5705    1.8562 C.3     1  LIG  -0.0880   0.0000 
3     C3       2.6665   -7.1131    1.4054 C.3     1  LIG  -0.0670   0.0000 
4     C4       4.0776   -6.6838    0.9913 C.3     1  LIG   0.0489   0.3611 
5     C5       4.7707   -7.6814    0.0579 C.3     1  LIG  -0.0885   0.0000 
6     C6       4.6579   -9.1286    0.5335 C.3     1  LIG  -0.0840   0.0000 
7     C7       4.9511   -6.3614    2.2174 C.2     1  LIG   0.7014   0.5690 
8     O1       5.2618   -7.1673    3.0854 O.2     1  LIG  -0.5620  -0.5700 
9     N1       5.3127   -5.0340    2.1751 N.am    1  LIG  -0.5497  -0.4201 
10    C8       4.7633   -4.4065    1.0818 C.2     1  LIG   0.7979   0.6900 
11    O2       4.8668   -3.2278    0.7719 O.2     1  LIG  -0.6149  -0.5700 
12    N2       4.0429   -5.3655    0.3810 N.am    1  LIG  -0.5283  -0.7301 
13    C9       6.1352   -4.3712    3.1774 C.3     1  LIG   0.1093   0.3001 
14    C10      5.2672   -3.8052    4.3004 C.3     1  LIG   0.0643   0.5030 
15    C11      5.3607   -1.9882    6.0491 C.3     1  LIG   0.0943   0.5030 
16    C12      5.3105   -0.7353    5.1860 C.3     1  LIG  -0.0243   0.2900 
17    Cl1      4.4441    0.5592    6.0458 Cl      1  LIG  -0.0822  -0.2900 
18    C13      6.7561   -4.0768    6.3175 C.3     1  LIG   0.0921   0.5030 
19    C14      8.0541   -3.5115    6.8760 C.3     1  LIG  -0.0242   0.2900 
20    Cl2      8.7943   -4.6813    7.9938 Cl      1  LIG  -0.0788  -0.2900 
21    H1       3.5396   -5.1527   -0.4743 H       1  LIG   0.3495   0.3700 
22    H2       2.6279   -9.4964   -0.0893 H       1  LIG   0.0491   0.0000 
23    H3       3.1810  -10.5412    1.2173 H       1  LIG   0.0626   0.0000 
24    H4       1.5384   -8.8464    2.0134 H       1  LIG   0.0626   0.0000 
25    H5       3.0896   -8.6890    2.8234 H       1  LIG   0.0593   0.0000 
26    H6       1.9841   -6.9771    0.5553 H       1  LIG   0.0715   0.0000 
27    H7       2.2854   -6.4694    2.2086 H       1  LIG   0.0546   0.0000 
28    H8       4.3231   -7.6103   -0.9428 H       1  LIG   0.0685   0.0000 
29    H9       5.8315   -7.4269   -0.0635 H       1  LIG   0.0546   0.0000 
30    H10      5.2730   -9.2754    1.4289 H       1  LIG   0.0614   0.0000 
31    H11      5.0614   -9.7970   -0.2359 H       1  LIG   0.0641   0.0000 
32    H12      6.8545   -5.0996    3.5638 H       1  LIG   0.0847   0.0000 
33    H13      6.6896   -3.5618    2.6891 H       1  LIG   0.0829   0.0000 
34    H14      4.5595   -3.0785    3.8893 H       1  LIG   0.1176   0.0000 
35    H15      4.6935   -4.5799    4.8220 H       1  LIG   0.1137   0.0000 
36    H16      4.3655   -2.3821    6.2845 H       1  LIG   0.1189   0.0000 
37    H17      5.8819   -1.7728    6.9869 H       1  LIG   0.1133   0.0000 
38    H18      6.3173   -0.3679    4.9647 H       1  LIG   0.0907   0.0000 
39    H19      4.7887   -0.9028    4.2406 H       1  LIG   0.0991   0.0000 
40    H20      6.0114   -4.2796    7.0955 H       1  LIG   0.1193   0.0000 
41    H21      6.9577   -5.0067    5.7766 H       1  LIG   0.1215   0.0000 
42    H22      8.7759   -3.3167    6.0769 H       1  LIG   0.0901   0.0000 
43    H23      7.8974   -2.5847    7.4332 H       1  LIG   0.0904   0.0000 
44    N3       6.1327   -3.0919    5.3320 N.4     1  LIG  -0.6808  -0.9590 
45    H24      6.9051   -2.6408    4.8222 H       1  LIG   0.4458   0.4500 
@<TRIPOS>BOND
1     1     6     1
2     1     2     1
3     1     22    1
4     1     23    1
5     2     3     1
6     2     24    1
7     2     25    1
8     3     4     1
9     3     26    1
10    3     27    1
11    4     12    1
12    4     5     1
13    4     7     1
14    5     6     1
15    5     28    1
16    5     29    1
17    6     30    1
18    6     31    1
19    7     8     2
20    7     9     am
21    9     10    am
22    9     13    1
23    10    11    2
24    10    12    am
25    12    21    1
26    13    14    1
27    13    32    1
28    13    33    1
29    14    34    1
30    14    35    1
31    14    44    1
32    15    16    1
33    15    36    1
34    15    37    1
35    15    44    1
36    16    17    1
37    16    38    1
38    16    39    1
39    18    19    1
40    18    40    1
41    18    41    1
42    18    44    1
43    19    20    1
44    19    42    1
45    19    43    1
46    44    45    1
@<TRIPOS>SUBSTRUCTURE
1   LIG    1    
 
########## Number      : 532
########## Name        : ZINC00002076
########## Description : AM1BCC_CHARGES =   0.0001 ORIGINAL_CHARGES =   0.0000

@<TRIPOS>MOLECULE
ZINC00002076
51    54    1     0     0    
SMALL
USER_CHARGES
****
****
@<TRIPOS>ATOM
1     C1      -4.2864    5.1950    6.3909 C.3     1  LIG  -0.0889   0.0000 
2     C2      -3.1424    5.9030    5.6185 C.3     1  LIG  -0.0386   0.0000 
3     C3      -2.3086    6.7189    6.6589 C.3     1  LIG  -0.0678   0.0000 
4     C4      -1.0652    6.0151    7.2054 C.3     1  LIG  -0.1807   0.0610 
5     C5      -1.1931    4.5133    7.2031 C.2     1  LIG   0.5737   0.4480 
6     O1      -0.8718    3.8396    8.1817 O.2     1  LIG  -0.5379  -0.5700 
7     C6      -1.6535    3.8584    5.9207 C.3     1  LIG  -0.1815   0.0610 
8     C7      -2.1690    4.8893    4.9137 C.3     1  LIG  -0.0528   0.0000 
9     C8      -2.8322    4.1799    3.7060 C.3     1  LIG  -0.0733   0.0000 
10    C9      -3.4907    5.1462    2.7084 C.3     1  LIG  -0.0704   0.0000 
11    C10     -4.4806    6.0423    3.4610 C.3     1  LIG  -0.0459   0.0000 
12    C11     -3.6960    6.8575    4.5086 C.3     1  LIG  -0.0544   0.0000 
13    C12     -4.5887    8.0050    5.0174 C.3     1  LIG  -0.0711   0.0000 
14    C13     -4.8409    9.0363    3.8880 C.3     1  LIG  -0.0691   0.0000 
15    C14     -4.8740    8.4224    2.4568 C.3     1  LIG  -0.0803   0.0000 
16    C15     -5.3457    6.9609    2.5641 C.3     1  LIG  -0.0566   0.0000 
17    C16     -5.6443    6.5896    1.1111 C.3     1  LIG  -0.0767   0.0000 
18    C17     -6.2085    7.8977    0.4995 C.3     1  LIG  -0.1183   0.0000 
19    C18     -5.9155    9.0399    1.5127 C.3     1  LIG   0.1408   0.2800 
20    O2      -7.1152    9.3597    2.2088 O.3     1  LIG  -0.5921  -0.6800 
21    C19     -3.4779    8.5846    1.7900 C.3     1  LIG  -0.0824   0.0000 
22    H1      -7.5272    8.5394    2.5260 H       1  LIG   0.3982   0.4000 
23    H2      -4.8014    4.4390    5.7934 H       1  LIG   0.0385   0.0000 
24    H3      -3.9150    4.6817    7.2845 H       1  LIG   0.0392   0.0000 
25    H4      -5.0358    5.9104    6.7438 H       1  LIG   0.0395   0.0000 
26    H5      -1.9639    7.6623    6.2156 H       1  LIG   0.0465   0.0000 
27    H6      -2.9500    7.0141    7.4999 H       1  LIG   0.0498   0.0000 
28    H7      -0.1891    6.2669    6.5959 H       1  LIG   0.0641   0.0000 
29    H8      -0.8597    6.3617    8.2240 H       1  LIG   0.0711   0.0000 
30    H9      -0.8019    3.3189    5.4915 H       1  LIG   0.0725   0.0000 
31    H10     -2.4281    3.1256    6.1723 H       1  LIG   0.0768   0.0000 
32    H11     -1.3125    5.4357    4.4751 H       1  LIG   0.0485   0.0000 
33    H12     -2.0756    3.5877    3.1761 H       1  LIG   0.0413   0.0000 
34    H13     -3.5850    3.4637    4.0585 H       1  LIG   0.0427   0.0000 
35    H14     -2.7220    5.7385    2.2008 H       1  LIG   0.0442   0.0000 
36    H15     -4.0052    4.5519    1.9452 H       1  LIG   0.0439   0.0000 
37    H16     -5.1677    5.3221    3.9387 H       1  LIG   0.0483   0.0000 
38    H17     -2.8369    7.3759    4.0605 H       1  LIG   0.0513   0.0000 
39    H18     -5.5547    7.6144    5.3594 H       1  LIG   0.0395   0.0000 
40    H19     -4.1416    8.5270    5.8694 H       1  LIG   0.0432   0.0000 
41    H20     -5.7704    9.5618    4.1322 H       1  LIG   0.0570   0.0000 
42    H21     -4.0593    9.8057    3.9364 H       1  LIG   0.0435   0.0000 
43    H22     -6.3357    6.8926    3.0594 H       1  LIG   0.0348   0.0000 
44    H23     -4.7446    6.2890    0.5645 H       1  LIG   0.0476   0.0000 
45    H24     -6.3669    5.7706    1.0370 H       1  LIG   0.0451   0.0000 
46    H25     -5.7046    8.0911   -0.4543 H       1  LIG   0.0514   0.0000 
47    H26     -7.2812    7.7992    0.3005 H       1  LIG   0.0549   0.0000 
48    H27     -5.5742    9.9387    0.9799 H       1  LIG   0.0804   0.0000 
49    H28     -3.2233    9.6494    1.7185 H       1  LIG   0.0358   0.0000 
50    H29     -2.6541    8.1034    2.3109 H       1  LIG   0.0396   0.0000 
51    H30     -3.4632    8.1966    0.7661 H       1  LIG   0.0352   0.0000 
@<TRIPOS>BOND
1     1     2     1
2     1     23    1
3     1     24    1
4     1     25    1
5     2     8     1
6     2     12    1
7     2     3     1
8     3     4     1
9     3     26    1
10    3     27    1
11    4     5     1
12    4     28    1
13    4     29    1
14    5     6     2
15    5     7     1
16    7     8     1
17    7     30    1
18    7     31    1
19    8     9     1
20    8     32    1
21    9     10    1
22    9     33    1
23    9     34    1
24    10    11    1
25    10    35    1
26    10    36    1
27    11    16    1
28    11    12    1
29    11    37    1
30    12    13    1
31    12    38    1
32    13    14    1
33    13    39    1
34    13    40    1
35    14    15    1
36    14    41    1
37    14    42    1
38    15    19    1
39    15    16    1
40    15    21    1
41    16    17    1
42    16    43    1
43    17    18    1
44    17    44    1
45    17    45    1
46    18    19    1
47    18    46    1
48    18    47    1
49    19    20    1
50    19    48    1
51    20    22    1
52    21    49    1
53    21    50    1
54    21    51    1
@<TRIPOS>SUBSTRUCTURE
1   LIG    1    
 
########## Number      : 533
########## Name        : ZINC00002077
########## Description : AM1BCC_CHARGES =   0.0002 ORIGINAL_CHARGES =  -0.0000

@<TRIPOS>MOLECULE
ZINC00002077
56    60    1     0     0    
SMALL
USER_CHARGES
****
****
@<TRIPOS>ATOM
1     C1       2.0793   -3.0913   -2.4346 C.3     1  LIG  -0.0819   0.0000 
2     C2       2.2056   -2.0101   -1.3189 C.3     1  LIG  -0.0707   0.0000 
3     C3       2.0342   -0.5963   -1.9514 C.3     1  LIG  -0.0708   0.0000 
4     C4       0.5969   -0.0255   -1.8617 C.3     1  LIG  -0.0708   0.0000 
5     C5      -0.4407   -1.1618   -1.9069 C.3     1  LIG  -0.0563   0.0000 
6     C6      -0.3156   -2.0053   -0.6192 C.3     1  LIG  -0.0459   0.0000 
7     C7       1.1647   -2.1739   -0.1949 C.3     1  LIG  -0.0581   0.0000 
8     C8       1.6441   -3.4333    0.5297 C.3     1  LIG  -0.0768   0.0000 
9     C9       3.1929   -3.3720    0.4260 C.3     1  LIG  -0.1141   0.0000 
10    C10      3.5419   -2.2071   -0.5484 C.3     1  LIG   0.1550   0.2800 
11    C11      4.7728   -2.5009   -1.3993 C.3     1  LIG  -0.0794   0.0000 
12    O1       3.8558   -1.0397    0.2203 O.3     1  LIG  -0.5971  -0.6800 
13    C12     -1.0868   -3.3174   -0.8111 C.3     1  LIG  -0.0700   0.0000 
14    C13     -2.5700   -3.0055   -1.0694 C.3     1  LIG  -0.0748   0.0000 
15    C14     -2.7943   -2.0307   -2.2504 C.3     1  LIG  -0.0513   0.0000 
16    C15     -1.9243   -0.7008   -2.0957 C.3     1  LIG  -0.0335   0.0000 
17    C16     -2.0612    0.1387   -3.4247 C.3     1  LIG   0.0068   0.1810 
18    C17     -3.4664    0.1815   -3.9110 C.2     1  LIG  -0.2501  -0.1810 
19    C18     -4.1156    0.9820   -4.8678 C.2     1  LIG   0.3043   0.1388 
20    N1      -5.4109    0.6721   -5.0011 N.2     1  LIG  -0.5211  -0.7068 
21    N2      -5.5862   -0.3342   -4.1225 N.pl3   1  LIG  -0.0110   0.2996 
22    C19     -4.4491   -0.6622   -3.4520 C.2     1  LIG  -0.1095  -0.3316 
23    C20     -4.2975   -1.7039   -2.4109 C.3     1  LIG  -0.0061   0.1800 
24    C21     -2.4090    0.1959   -0.9257 C.3     1  LIG  -0.0881   0.0000 
25    H1       3.2400   -0.9724    0.9678 H       1  LIG   0.3997   0.4000 
26    H2      -6.5086   -0.7436   -4.0364 H       1  LIG   0.3187   0.2700 
27    H3       2.7750   -2.8806   -3.2554 H       1  LIG   0.0370   0.0000 
28    H4       2.3230   -4.0930   -2.0648 H       1  LIG   0.0343   0.0000 
29    H5       1.0932   -3.1761   -2.8840 H       1  LIG   0.0395   0.0000 
30    H6       2.7047    0.1392   -1.4934 H       1  LIG   0.0588   0.0000 
31    H7       2.3320   -0.6290   -3.0075 H       1  LIG   0.0427   0.0000 
32    H8       0.4992    0.5438   -0.9295 H       1  LIG   0.0388   0.0000 
33    H9       0.4614    0.6858   -2.6823 H       1  LIG   0.0440   0.0000 
34    H10     -0.1559   -1.7350   -2.8004 H       1  LIG   0.0526   0.0000 
35    H11     -0.8381   -1.5257    0.2267 H       1  LIG   0.0474   0.0000 
36    H12      1.2655   -1.3772    0.5694 H       1  LIG   0.0336   0.0000 
37    H13      1.3152   -3.4542    1.5737 H       1  LIG   0.0437   0.0000 
38    H14      1.2858   -4.3498    0.0496 H       1  LIG   0.0474   0.0000 
39    H15      3.6298   -3.2075    1.4175 H       1  LIG   0.0543   0.0000 
40    H16      3.5599   -4.3359    0.0552 H       1  LIG   0.0522   0.0000 
41    H17      5.6698   -2.5479   -0.7707 H       1  LIG   0.0504   0.0000 
42    H18      4.6985   -3.4481   -1.9412 H       1  LIG   0.0403   0.0000 
43    H19      4.9429   -1.6965   -2.1235 H       1  LIG   0.0468   0.0000 
44    H20     -0.6815   -3.9011   -1.6440 H       1  LIG   0.0448   0.0000 
45    H21     -1.0210   -3.9405    0.0878 H       1  LIG   0.0424   0.0000 
46    H22     -3.0966   -3.9463   -1.2727 H       1  LIG   0.0390   0.0000 
47    H23     -3.0180   -2.5980   -0.1549 H       1  LIG   0.0411   0.0000 
48    H24     -2.4536   -2.5927   -3.1430 H       1  LIG   0.0550   0.0000 
49    H25     -1.6946    1.1611   -3.2752 H       1  LIG   0.0526   0.0000 
50    H26     -1.4472   -0.3155   -4.2130 H       1  LIG   0.0497   0.0000 
51    H27     -3.7048    1.7764   -5.4747 H       1  LIG   0.0415   0.1500 
52    H28     -4.8423   -2.6109   -2.6978 H       1  LIG   0.0502   0.0000 
53    H29     -4.7276   -1.3517   -1.4663 H       1  LIG   0.0580   0.0000 
54    H30     -3.3860    0.6457   -1.1315 H       1  LIG   0.0442   0.0000 
55    H31     -2.5197   -0.3484    0.0146 H       1  LIG   0.0333   0.0000 
56    H32     -1.7208    1.0292   -0.7516 H       1  LIG   0.0375   0.0000 
@<TRIPOS>BOND
1     1     2     1
2     1     27    1
3     1     28    1
4     1     29    1
5     2     7     1
6     2     10    1
7     2     3     1
8     3     4     1
9     3     30    1
10    3     31    1
11    4     5     1
12    4     32    1
13    4     33    1
14    5     16    1
15    5     6     1
16    5     34    1
17    6     7     1
18    6     13    1
19    6     35    1
20    7     8     1
21    7     36    1
22    8     9     1
23    8     37    1
24    8     38    1
25    9     10    1
26    9     39    1
27    9     40    1
28    10    11    1
29    10    12    1
30    11    41    1
31    11    42    1
32    11    43    1
33    12    25    1
34    13    14    1
35    13    44    1
36    13    45    1
37    14    15    1
38    14    46    1
39    14    47    1
40    15    23    1
41    15    16    1
42    15    48    1
43    16    17    1
44    16    24    1
45    17    18    1
46    17    49    1
47    17    50    1
48    18    22    2
49    18    19    1
50    19    20    2
51    19    51    1
52    20    21    1
53    21    22    1
54    21    26    1
55    22    23    1
56    23    52    1
57    23    53    1
58    24    54    1
59    24    55    1
60    24    56    1
@<TRIPOS>SUBSTRUCTURE
1   LIG    1    
 
########## Number      : 534
########## Name        : ZINC00002079
########## Description : AM1BCC_CHARGES =   1.9999 ORIGINAL_CHARGES =   2.0000

@<TRIPOS>MOLECULE
ZINC00002079
38    39    1     0     0    
SMALL
USER_CHARGES
****
****
@<TRIPOS>ATOM
1     C1      -0.7603   -7.5266   -0.9250 C.ar    1  LIG  -0.1073  -0.1500 
2     C2      -0.4478   -8.7698   -0.3647 C.ar    1  LIG  -0.0762  -0.1500 
3     C3       0.8668   -9.2533   -0.3783 C.ar    1  LIG  -0.1653  -0.0220 
4     C4       1.8609   -8.4574   -0.9625 C.ar    1  LIG  -0.0759  -0.1500 
5     C5       1.5492   -7.2134   -1.5227 C.ar    1  LIG  -0.1126  -0.1500 
6     C6       0.2317   -6.7392   -1.5232 C.ar    1  LIG   0.0114   0.0284 
7     C7      -0.1429   -5.4253   -2.0726 C.2     1  LIG  -0.1101  -0.1784 
8     C8       0.4649   -4.8390   -3.1172 C.2     1  LIG  -0.1099  -0.1784 
9     C9       0.0787   -3.5332   -3.6779 C.ar    1  LIG   0.0112   0.0284 
10    C10     -0.4362   -2.4935   -2.8940 C.ar    1  LIG  -0.1127  -0.1500 
11    C11     -0.7620   -1.2595   -3.4680 C.ar    1  LIG  -0.0761  -0.1500 
12    C12     -0.5707   -1.0291   -4.8367 C.ar    1  LIG  -0.1655  -0.0220 
13    C13     -0.0398   -2.0649   -5.6162 C.ar    1  LIG  -0.0762  -0.1500 
14    C14      0.2856   -3.2989   -5.0433 C.ar    1  LIG  -0.1071  -0.1500 
15    C15     -0.9137    0.2701   -5.4387 C.cat   1  LIG   0.5054   0.7308 
16    N1      -2.0383    0.8766   -5.0803 N.pl3   1  LIG  -0.8026  -0.7544 
17    N2      -0.0939    0.8112   -6.3310 N.pl3   1  LIG  -0.8013  -0.7544 
18    C16      1.1968  -10.5617    0.2110 C.cat   1  LIG   0.5055   0.7308 
19    N3       2.0383  -11.3677   -0.4240 N.pl3   1  LIG  -0.8026  -0.7544 
20    N4       0.6455  -10.9137    1.3656 N.pl3   1  LIG  -0.8013  -0.7544 
21    H1      -2.2954    1.7718   -5.4798 H       1  LIG   0.4794   0.4500 
22    H2      -2.6732    0.4561   -4.4110 H       1  LIG   0.4900   0.4500 
23    H3      -0.3113    1.7021   -6.7624 H       1  LIG   0.4796   0.4500 
24    H4       0.7753    0.3582   -6.5903 H       1  LIG   0.4910   0.4500 
25    H5       2.2817  -12.2725   -0.0379 H       1  LIG   0.4794   0.4500 
26    H6       2.4472  -11.1065   -1.3143 H       1  LIG   0.4900   0.4500 
27    H7       0.8536  -11.8111    1.7881 H       1  LIG   0.4795   0.4500 
28    H8       0.0183  -10.2902    1.8615 H       1  LIG   0.4909   0.4500 
29    H9      -1.7937   -7.1865   -0.8951 H       1  LIG   0.1682   0.1500 
30    H10     -1.2496   -9.3598    0.0734 H       1  LIG   0.1569   0.1500 
31    H11      2.8970   -8.7881   -0.9740 H       1  LIG   0.1556   0.1500 
32    H12      2.3578   -6.6218   -1.9457 H       1  LIG   0.1646   0.1500 
33    H13     -0.9923   -4.9478   -1.5899 H       1  LIG   0.1492   0.1500 
34    H14      1.2806   -5.3402   -3.6328 H       1  LIG   0.1494   0.1500 
35    H15     -0.5823   -2.6184   -1.8236 H       1  LIG   0.1645   0.1500 
36    H16     -1.1522   -0.4736   -2.8252 H       1  LIG   0.1557   0.1500 
37    H17      0.1181   -1.9286   -6.6836 H       1  LIG   0.1569   0.1500 
38    H18      0.6953   -4.0785   -5.6827 H       1  LIG   0.1683   0.1500 
@<TRIPOS>BOND
1     1     6     ar
2     1     2     ar
3     1     29    1
4     2     3     ar
5     2     30    1
6     3     4     ar
7     3     18    1
8     4     5     ar
9     4     31    1
10    5     6     ar
11    5     32    1
12    6     7     1
13    7     8     2
14    7     33    1
15    8     9     1
16    8     34    1
17    9     14    ar
18    9     10    ar
19    10    11    ar
20    10    35    1
21    11    12    ar
22    11    36    1
23    12    13    ar
24    12    15    1
25    13    14    ar
26    13    37    1
27    14    38    1
28    15    16    2
29    15    17    1
30    16    21    1
31    16    22    1
32    17    23    1
33    17    24    1
34    18    19    2
35    18    20    1
36    19    25    1
37    19    26    1
38    20    27    1
39    20    28    1
@<TRIPOS>SUBSTRUCTURE
1   LIG    1    
 
########## Number      : 535
########## Name        : ZINC00002081
########## Description : AM1BCC_CHARGES =   0.0000 ORIGINAL_CHARGES =  -0.0000

@<TRIPOS>MOLECULE
ZINC00002081
30    30    1     0     0    
SMALL
USER_CHARGES
****
****
@<TRIPOS>ATOM
1     C1       0.9699   -4.0943   -0.2069 C.3     1  LIG  -0.0759   0.0000 
2     C2       1.8361   -3.1462    0.5982 C.3     1  LIG  -0.3092   0.1052 
3     S1       3.2058   -2.5325   -0.3648 S.o2    1  LIG   1.3832   1.2038 
4     O1       4.0856   -3.6454   -0.6663 O.2     1  LIG  -0.6561  -0.6500 
5     O2       2.6858   -1.6934   -1.4273 O.2     1  LIG  -0.6514  -0.6500 
6     C3       4.0529   -1.4734    0.7732 C.ar    1  LIG  -0.3812  -0.0090 
7     C4       3.6165   -0.1569    0.9312 C.ar    1  LIG  -0.0196  -0.1500 
8     C5       4.2918    0.6892    1.8114 C.ar    1  LIG  -0.1218  -0.1500 
9     C6       5.3997    0.2129    2.5196 C.ar    1  LIG  -0.0541   0.0862 
10    C7       5.8361   -1.1047    2.3511 C.ar    1  LIG  -0.1487  -0.1500 
11    C8       5.1617   -1.9525    1.4715 C.ar    1  LIG  -0.0258  -0.1500 
12    C9       6.1364    1.0796    3.4571 C.2     1  LIG   0.3426   0.3038 
13    N1       5.7887    2.3076    3.6677 N.2     1  LIG  -0.3823  -0.5120 
14    N2       6.5716    2.9655    4.5590 N.pl3   1  LIG  -0.3089  -0.3680 
15    C10      6.3301    4.2847    4.8926 C.2     1  LIG   0.5863   0.5000 
16    S2       5.1041    5.2573    4.2985 S.2     1  LIG  -0.4755  -0.3800 
17    N3       7.2265    4.7813    5.8097 N.pl3   1  LIG  -0.6450  -0.8000 
18    H1       7.3457    2.4612    4.9781 H       1  LIG   0.2958   0.3700 
19    H2       7.1561    5.7390    6.1360 H       1  LIG   0.3486   0.3700 
20    H3       7.9791    4.2177    6.1875 H       1  LIG   0.3030   0.3700 
21    H4       0.1364   -4.4579    0.4017 H       1  LIG   0.0490   0.0000 
22    H5       0.5569   -3.5971   -1.0903 H       1  LIG   0.0551   0.0000 
23    H6       1.5458   -4.9599   -0.5496 H       1  LIG   0.0546   0.0000 
24    H7       1.2481   -2.2848    0.9288 H       1  LIG   0.1093   0.0000 
25    H8       2.2482   -3.6584    1.4727 H       1  LIG   0.1085   0.0000 
26    H9       2.7577    0.2231    0.3850 H       1  LIG   0.1566   0.1500 
27    H10      3.9434    1.7117    1.9308 H       1  LIG   0.1713   0.1500 
28    H11      6.6974   -1.4836    2.8953 H       1  LIG   0.1390   0.1500 
29    H12      5.5115   -2.9735    1.3500 H       1  LIG   0.1584   0.1500 
30    H13      7.0030    0.6251    3.9723 H       1  LIG  -0.0058   0.0600 
@<TRIPOS>BOND
1     1     2     1
2     1     21    1
3     1     22    1
4     1     23    1
5     2     3     1
6     2     24    1
7     2     25    1
8     3     4     2
9     3     5     2
10    3     6     1
11    6     11    ar
12    6     7     ar
13    7     8     ar
14    7     26    1
15    8     9     ar
16    8     27    1
17    9     10    ar
18    9     12    1
19    10    11    ar
20    10    28    1
21    11    29    1
22    12    13    2
23    12    30    1
24    13    14    1
25    14    15    1
26    14    18    1
27    15    16    2
28    15    17    1
29    17    19    1
30    17    20    1
@<TRIPOS>SUBSTRUCTURE
1   LIG    1    
 
########## Number      : 536
########## Name        : ZINC00002083
########## Description : AM1BCC_CHARGES =  -0.0004 ORIGINAL_CHARGES =  -0.0000

@<TRIPOS>MOLECULE
ZINC00002083
33    35    1     0     0    
SMALL
USER_CHARGES
****
****
@<TRIPOS>ATOM
1     C1       4.3244   -4.0905    3.8375 C.3     1  LIG   0.1908   0.3557 
2     N1       4.3795   -5.2592    2.9041 N.pl3   1  LIG  -0.8003  -0.8494 
3     C2       4.6627   -6.5409    3.6115 C.3     1  LIG   0.0937   0.4777 
4     C3       4.7222   -7.7358    2.6688 C.2     1  LIG   0.5626   0.4228 
5     C4       4.3700   -7.6230    1.2315 C.ar    1  LIG  -0.0650   0.0862 
6     C5       4.8022   -8.6262    0.3535 C.ar    1  LIG  -0.0889  -0.1500 
7     C6       4.4826   -8.5626   -1.0050 C.ar    1  LIG  -0.0822  -0.1500 
8     C7       3.7266   -7.5003   -1.4972 C.ar    1  LIG  -0.1205  -0.1500 
9     C8       3.2867   -6.5006   -0.6327 C.ar    1  LIG  -0.0262  -0.1500 
10    C9       3.6077   -6.5759    0.7245 C.ar    1  LIG  -0.3234  -0.0090 
11    S1       3.0609   -5.3092    1.7978 S.o2    1  LIG   1.5165   1.4470 
12    O1       1.8782   -5.8039    2.4726 O.2     1  LIG  -0.6390  -0.6500 
13    O2       3.0416   -4.0706    1.0448 O.2     1  LIG  -0.6444  -0.6500 
14    O3       5.0738   -8.8376    3.0963 O.2     1  LIG  -0.4929  -0.5700 
15    C10      6.0163   -6.3951    4.3053 C.2     1  LIG   0.6677   0.5690 
16    O4       7.0342   -6.1739    3.6529 O.2     1  LIG  -0.5689  -0.5700 
17    N2       5.9089   -6.5482    5.6817 N.am    1  LIG  -0.5119  -0.4940 
18    C11      6.9312   -6.4686    6.6104 C.2     1  LIG   0.4725   0.4421 
19    N3       6.7228   -6.6320    7.8995 N.2     1  LIG  -0.6809  -0.5653 
20    C12      7.9149   -6.4976    8.5827 C.2     1  LIG   0.3546   0.0772 
21    C13      9.0197   -6.2315    7.8050 C.2     1  LIG  -0.3119  -0.1100 
22    S2       8.5489   -6.1467    6.1616 S.3     1  LIG   0.0274  -0.0800 
23    H1       3.8519   -6.7767    4.3176 H       1  LIG   0.0898   0.0000 
24    H2       4.9999   -6.7421    6.0912 H       1  LIG   0.3468   0.3700 
25    H3       4.0094   -3.1867    3.3078 H       1  LIG   0.0776   0.0000 
26    H4       3.6288   -4.2851    4.6592 H       1  LIG   0.0429   0.0000 
27    H5       5.3182   -3.8808    4.2429 H       1  LIG   0.0628   0.0000 
28    H6       5.3966   -9.4649    0.7082 H       1  LIG   0.1643   0.1500 
29    H7       4.8250   -9.3429   -1.6791 H       1  LIG   0.1470   0.1500 
30    H8       3.4800   -7.4529   -2.5541 H       1  LIG   0.1487   0.1500 
31    H9       2.6942   -5.6802   -1.0281 H       1  LIG   0.1616   0.1500 
32    H10      7.9225   -6.6042    9.6593 H       1  LIG   0.0454   0.1500 
33    H11     10.0450   -6.0878    8.1141 H       1  LIG   0.1833   0.1500 
@<TRIPOS>BOND
1     1     2     1
2     1     25    1
3     1     26    1
4     1     27    1
5     2     11    1
6     2     3     1
7     3     15    1
8     3     23    1
9     3     4     1
10    4     5     1
11    4     14    2
12    5     10    ar
13    5     6     ar
14    6     7     ar
15    6     28    1
16    7     8     ar
17    7     29    1
18    8     9     ar
19    8     30    1
20    9     10    ar
21    9     31    1
22    10    11    1
23    11    12    2
24    11    13    2
25    15    16    2
26    15    17    am
27    17    18    1
28    17    24    1
29    18    22    1
30    18    19    2
31    19    20    1
32    20    21    2
33    20    32    1
34    21    22    1
35    21    33    1
@<TRIPOS>SUBSTRUCTURE
1   LIG    1    
 
########## Number      : 537
########## Name        : ZINC00002087
########## Description : AM1BCC_CHARGES =   1.0002 ORIGINAL_CHARGES =   1.0000

@<TRIPOS>MOLECULE
ZINC00002087
40    42    1     0     0    
SMALL
USER_CHARGES
****
****
@<TRIPOS>ATOM
1     C1       6.3843   -9.7640    0.6954 C.ar    1  LIG  -0.0800  -0.1500 
2     C2       5.8211   -9.6441    1.9644 C.ar    1  LIG  -0.1171  -0.1500 
3     C3       4.7637   -8.7589    2.1797 C.ar    1  LIG  -0.0985  -0.1500 
4     C4       4.2608   -7.9840    1.1255 C.ar    1  LIG  -0.1857  -0.1435 
5     C5       4.8337   -8.1135   -0.1475 C.ar    1  LIG  -0.1156  -0.1500 
6     C6       5.8907   -8.9998   -0.3601 C.ar    1  LIG  -0.1125  -0.1500 
7     C7       3.1304   -7.0170    1.3583 C.3     1  LIG   0.1788   0.6465 
8     C8       4.4513   -5.1353    2.3710 C.3     1  LIG   0.2741   0.8031 
9     N1       4.9690   -3.7715    2.2363 N.pl3   1  LIG  -0.4180  -0.6602 
10    C9       4.2627   -2.7105    1.6376 C.2     1  LIG   0.3142   0.5810 
11    S1       4.7329   -1.0852    1.6372 S.2     1  LIG  -0.1483  -0.3800 
12    S2       2.7891   -3.0727    0.7301 S.3     1  LIG  -0.0977  -0.3710 
13    C10      2.3205   -4.6820    1.3223 C.3     1  LIG   0.0790   0.7330 
14    C11      6.2611   -3.5630    2.9325 C.3     1  LIG   0.1232   0.4436 
15    C12      6.1685   -3.7484    4.4293 C.ar    1  LIG  -0.1615  -0.1435 
16    C13      6.7586   -4.8639    5.0416 C.ar    1  LIG  -0.1227  -0.1500 
17    C14      6.6656   -5.0473    6.4222 C.ar    1  LIG  -0.1248  -0.1500 
18    C15      5.9838   -4.1185    7.2052 C.ar    1  LIG  -0.0997  -0.1500 
19    C16      5.3956   -3.0052    6.6087 C.ar    1  LIG  -0.1206  -0.1500 
20    C17      5.4872   -2.8200    5.2280 C.ar    1  LIG  -0.1097  -0.1500 
21    H1       7.2068  -10.4538    0.5289 H       1  LIG   0.1625   0.1500 
22    H2       6.2056  -10.2407    2.7869 H       1  LIG   0.1606   0.1500 
23    H3       4.3388   -8.6779    3.1774 H       1  LIG   0.1425   0.1500 
24    H4       4.4599   -7.5274   -0.9835 H       1  LIG   0.1333   0.1500 
25    H5       6.3288   -9.0949   -1.3497 H       1  LIG   0.1610   0.1500 
26    H6       2.3636   -7.1865    0.5924 H       1  LIG   0.1105   0.0000 
27    H7       2.6631   -7.1688    2.3390 H       1  LIG   0.1042   0.0000 
28    H8       3.9270   -5.2329    3.3290 H       1  LIG   0.1052   0.0000 
29    H9       5.3005   -5.8243    2.3429 H       1  LIG   0.1305   0.0000 
30    H10      1.5675   -5.0994    0.6470 H       1  LIG   0.1323   0.0000 
31    H11      1.9220   -4.6593    2.3425 H       1  LIG   0.1212   0.0000 
32    H12      6.9727   -4.2793    2.5016 H       1  LIG   0.0752   0.0000 
33    H13      6.6909   -2.5791    2.7289 H       1  LIG   0.1144   0.0000 
34    H14      7.2945   -5.6004    4.4477 H       1  LIG   0.1300   0.1500 
35    H15      7.1260   -5.9148    6.8866 H       1  LIG   0.1481   0.1500 
36    H16      5.9124   -4.2609    8.2797 H       1  LIG   0.1523   0.1500 
37    H17      4.8657   -2.2793    7.2190 H       1  LIG   0.1523   0.1500 
38    H18      5.0227   -1.9438    4.7848 H       1  LIG   0.1429   0.1500 
39    N2       3.5262   -5.5442    1.2749 N.4     1  LIG  -0.6955  -0.9590 
40    H19      4.0188   -5.4440    0.3730 H       1  LIG   0.4598   0.4500 
@<TRIPOS>BOND
1     1     6     ar
2     1     2     ar
3     1     21    1
4     2     3     ar
5     2     22    1
6     3     4     ar
7     3     23    1
8     4     5     ar
9     4     7     1
10    5     6     ar
11    5     24    1
12    6     25    1
13    7     26    1
14    7     27    1
15    7     39    1
16    8     9     1
17    8     28    1
18    8     29    1
19    8     39    1
20    9     10    1
21    9     14    1
22    10    11    2
23    10    12    1
24    12    13    1
25    13    30    1
26    13    31    1
27    13    39    1
28    14    15    1
29    14    32    1
30    14    33    1
31    15    20    ar
32    15    16    ar
33    16    17    ar
34    16    34    1
35    17    18    ar
36    17    35    1
37    18    19    ar
38    18    36    1
39    19    20    ar
40    19    37    1
41    20    38    1
42    39    40    1
@<TRIPOS>SUBSTRUCTURE
1   LIG    1    
 
########## Number      : 538
########## Name        : ZINC00002092
########## Description : AM1BCC_CHARGES =  -0.0004 ORIGINAL_CHARGES =  -0.0000

@<TRIPOS>MOLECULE
ZINC00002092
34    35    1     0     0    
SMALL
USER_CHARGES
****
****
@<TRIPOS>ATOM
1     C1       6.5498  -10.2690    0.1884 C.3     1  LIG  -0.1164   0.0000 
2     C2       5.4545   -9.3093   -0.2506 C.3     1  LIG   0.0836   0.3001 
3     N1       5.5324   -8.0326    0.4644 N.am    1  LIG  -0.3759  -0.4691 
4     C3       4.8772   -7.9086    1.6711 C.2     1  LIG   0.0719  -0.0410 
5     C4       4.9151   -6.7830    2.3847 C.2     1  LIG  -0.4258  -0.1356 
6     C5       5.7074   -5.7025    1.7757 C.2     1  LIG   0.7795   0.6719 
7     N2       6.3404   -5.7886    0.6529 N.2     1  LIG  -0.7017  -0.6610 
8     C6       6.2941   -6.9713   -0.0620 C.2     1  LIG   0.8316   0.8410 
9     O1       6.9067   -7.0826   -1.1249 O.2     1  LIG  -0.6133  -0.5700 
10    N3       5.7800   -4.4678    2.4833 N.pl3   1  LIG  -0.8220  -0.7943 
11    S1       5.0607   -4.0539    3.9672 S.o2    1  LIG   1.5410   1.4470 
12    O2       3.6201   -4.0200    3.8077 O.2     1  LIG  -0.6547  -0.6500 
13    O3       5.6690   -4.8331    5.0276 O.2     1  LIG  -0.6553  -0.6500 
14    C7       5.6143   -2.3840    4.1504 C.ar    1  LIG  -0.4968  -0.0090 
15    C8       4.8363   -1.3424    3.6489 C.ar    1  LIG   0.0461  -0.1500 
16    C9       5.2680   -0.0246    3.8149 C.ar    1  LIG  -0.2492  -0.1500 
17    C10      6.4628    0.2609    4.4881 C.ar    1  LIG   0.2729   0.1000 
18    C11      7.2282   -0.8026    4.9833 C.ar    1  LIG  -0.2494  -0.1500 
19    C12      6.8066   -2.1244    4.8232 C.ar    1  LIG   0.0459  -0.1500 
20    N4       6.8955    1.5699    4.6337 N.pl3   1  LIG  -0.8674  -0.9000 
21    H1       6.3414   -3.7378    2.0288 H       1  LIG   0.4661   0.4200 
22    H2       6.3243    2.3375    4.3064 H       1  LIG   0.4379   0.4000 
23    H3       7.7402    1.7755    5.1503 H       1  LIG   0.4378   0.4000 
24    H4       6.4785  -11.2080   -0.3689 H       1  LIG   0.0486   0.0000 
25    H5       7.5420   -9.8403    0.0128 H       1  LIG   0.0593   0.0000 
26    H6       6.4691  -10.4978    1.2561 H       1  LIG   0.0363   0.0000 
27    H7       5.5508   -9.1229   -1.3262 H       1  LIG   0.0934   0.0000 
28    H8       4.4662   -9.7559   -0.0893 H       1  LIG   0.0461   0.0000 
29    H9       4.3244   -8.7733    2.0226 H       1  LIG   0.1598   0.1500 
30    H10      4.4035   -6.6844    3.3296 H       1  LIG   0.1726   0.1500 
31    H11      3.9039   -1.5314    3.1249 H       1  LIG   0.1558   0.1500 
32    H12      4.6599    0.7834    3.4143 H       1  LIG   0.1428   0.1500 
33    H13      8.1637   -0.6073    5.5027 H       1  LIG   0.1427   0.1500 
34    H14      7.4206   -2.9272    5.2209 H       1  LIG   0.1558   0.1500 
@<TRIPOS>BOND
1     1     2     1
2     1     24    1
3     1     25    1
4     1     26    1
5     2     3     1
6     2     27    1
7     2     28    1
8     3     8     am
9     3     4     1
10    4     5     2
11    4     29    1
12    5     6     1
13    5     30    1
14    6     7     2
15    6     10    1
16    7     8     1
17    8     9     2
18    10    11    1
19    10    21    1
20    11    12    2
21    11    13    2
22    11    14    1
23    14    19    ar
24    14    15    ar
25    15    16    ar
26    15    31    1
27    16    17    ar
28    16    32    1
29    17    18    ar
30    17    20    1
31    18    19    ar
32    18    33    1
33    19    34    1
34    20    22    1
35    20    23    1
@<TRIPOS>SUBSTRUCTURE
1   LIG    1    
 
########## Number      : 539
########## Name        : ZINC00002094
########## Description : AM1BCC_CHARGES =  -0.0001 ORIGINAL_CHARGES =  -0.0000

@<TRIPOS>MOLECULE
ZINC00002094
35    36    1     0     0    
SMALL
USER_CHARGES
****
****
@<TRIPOS>ATOM
1     C1       3.8492    6.6985    7.4629 C.3     1  LIG   0.1085   0.2800 
2     O1       2.7045    7.0377    6.6815 O.3     1  LIG  -0.3045  -0.3625 
3     C2       1.5243    6.8939    7.3455 C.ar    1  LIG  -0.1502   0.0825 
4     C3       0.6123    7.9392    7.3488 C.ar    1  LIG   0.6862   0.5090 
5     N1      -0.5994    7.8809    7.9377 N.ar    1  LIG  -0.7329  -0.6200 
6     C4      -0.8943    6.7094    8.5214 C.ar    1  LIG   0.6661   0.4700 
7     N2      -0.1164    5.6152    8.5615 N.ar    1  LIG  -0.7573  -0.6200 
8     C5       1.0882    5.7257    7.9552 C.ar    1  LIG   0.6384   0.3925 
9     O2       1.9100    4.6152    7.8879 O.3     1  LIG  -0.4390  -0.3625 
10    C6       1.4056    3.4678    8.5648 C.3     1  LIG   0.1233   0.2800 
11    N3       0.8971    9.2242    6.7766 N.pl3   1  LIG  -0.8726  -0.7570 
12    S1       2.0991   10.1493    7.5766 S.o2    1  LIG   1.5409   1.4470 
13    O3       1.9715    9.9960    9.0132 O.2     1  LIG  -0.6612  -0.6500 
14    O4       3.3789    9.9505    6.9256 O.2     1  LIG  -0.6484  -0.6500 
15    C7       1.5560   11.7868    7.1775 C.ar    1  LIG  -0.4748  -0.0090 
16    C8       0.6648   12.4407    8.0262 C.ar    1  LIG   0.0429  -0.1500 
17    C9       0.2549   13.7396    7.7182 C.ar    1  LIG  -0.2425  -0.1500 
18    C10      0.7378   14.3943    6.5778 C.ar    1  LIG   0.2500   0.1000 
19    C11      1.6315   13.7161    5.7389 C.ar    1  LIG  -0.2427  -0.1500 
20    C12      2.0485   12.4169    6.0365 C.ar    1  LIG   0.0346  -0.1500 
21    N4       0.3114   15.6761    6.2660 N.pl3   1  LIG  -0.8545  -0.9000 
22    H1       0.0389    9.7319    6.5319 H       1  LIG   0.4611   0.4200 
23    H2      -0.3027   16.1779    6.8936 H       1  LIG   0.4257   0.4000 
24    H3       0.6915   16.1608    5.4640 H       1  LIG   0.4259   0.4000 
25    H4       4.1115    5.6470    7.3158 H       1  LIG   0.0444   0.0000 
26    H5       4.6889    7.3006    7.1027 H       1  LIG   0.0768   0.0000 
27    H6       3.7113    6.9186    8.5279 H       1  LIG   0.0417   0.0000 
28    H7      -1.8601    6.6368    9.0066 H       1  LIG   0.0578   0.1500 
29    H8       2.1463    2.6687    8.4652 H       1  LIG   0.0637   0.0000 
30    H9       1.2692    3.6677    9.6331 H       1  LIG   0.0487   0.0000 
31    H10      0.4730    3.1196    8.1080 H       1  LIG   0.0506   0.0000 
32    H11      0.2751   11.9604    8.9190 H       1  LIG   0.1521   0.1500 
33    H12     -0.4471   14.2415    8.3803 H       1  LIG   0.1409   0.1500 
34    H13      2.0133   14.1995    4.8424 H       1  LIG   0.1407   0.1500 
35    H14      2.7443   11.9184    5.3680 H       1  LIG   0.1595   0.1500 
@<TRIPOS>BOND
1     1     2     1
2     1     25    1
3     1     26    1
4     1     27    1
5     2     3     1
6     3     8     ar
7     3     4     ar
8     4     5     ar
9     4     11    1
10    5     6     ar
11    6     7     ar
12    6     28    1
13    7     8     ar
14    8     9     1
15    9     10    1
16    10    29    1
17    10    30    1
18    10    31    1
19    11    12    1
20    11    22    1
21    12    13    2
22    12    14    2
23    12    15    1
24    15    20    ar
25    15    16    ar
26    16    17    ar
27    16    32    1
28    17    18    ar
29    17    33    1
30    18    19    ar
31    18    21    1
32    19    20    ar
33    19    34    1
34    20    35    1
35    21    23    1
36    21    24    1
@<TRIPOS>SUBSTRUCTURE
1   LIG    1    
 
########## Number      : 540
########## Name        : ZINC00002097
########## Description : AM1BCC_CHARGES =   0.0002 ORIGINAL_CHARGES =   0.0000

@<TRIPOS>MOLECULE
ZINC00002097
31    32    1     0     0    
SMALL
USER_CHARGES
****
****
@<TRIPOS>ATOM
1     C1       5.4530   -6.7301   -1.4405 C.3     1  LIG   0.1256   0.2800 
2     O1       4.8642   -6.1737   -0.2695 O.3     1  LIG  -0.4292  -0.3625 
3     C2       3.9643   -7.0133    0.3582 C.ar    1  LIG   0.5368   0.3925 
4     C3       3.3946   -6.5921    1.5505 C.ar    1  LIG   0.4905   0.5090 
5     N1       2.5013   -7.3416    2.2290 N.ar    1  LIG  -0.6030  -0.6200 
6     C4       2.1732   -8.5204    1.6637 C.ar    1  LIG   0.2510   0.1600 
7     C5       2.7245   -8.9398    0.4717 C.ar    1  LIG   0.3270   0.1600 
8     N2       3.6258   -8.1966   -0.2025 N.ar    1  LIG  -0.6986  -0.6200 
9     N3       3.7915   -5.3788    2.2097 N.pl3   1  LIG  -0.8806  -0.7570 
10    S1       5.2110   -5.5529    3.1740 S.o2    1  LIG   1.5414   1.4470 
11    O2       4.8370   -6.1484    4.4420 O.2     1  LIG  -0.6579  -0.6500 
12    O3       6.3010   -6.1021    2.3919 O.2     1  LIG  -0.6567  -0.6500 
13    C6       5.5967   -3.8515    3.4620 C.ar    1  LIG  -0.4617  -0.0090 
14    C7       5.3656   -3.2810    4.7111 C.ar    1  LIG   0.0335  -0.1500 
15    C8       5.6936   -1.9393    4.9195 C.ar    1  LIG  -0.2398  -0.1500 
16    C9       6.2590   -1.1687    3.8950 C.ar    1  LIG   0.2424   0.1000 
17    C10      6.4808   -1.7646    2.6469 C.ar    1  LIG  -0.2412  -0.1500 
18    C11      6.1572   -3.1046    2.4268 C.ar    1  LIG   0.0376  -0.1500 
19    N4       6.5661    0.1670    4.1040 N.pl3   1  LIG  -0.8512  -0.9000 
20    H1       2.9991   -5.0201    2.7577 H       1  LIG   0.4602   0.4200 
21    H2       6.4353    0.5862    5.0149 H       1  LIG   0.4217   0.4000 
22    H3       7.0037    0.7123    3.3734 H       1  LIG   0.4218   0.4000 
23    H4       4.6979   -6.9106   -2.2131 H       1  LIG   0.0454   0.0000 
24    H5       6.1680   -6.0013   -1.8340 H       1  LIG   0.0636   0.0000 
25    H6       6.0033   -7.6483   -1.2080 H       1  LIG   0.0532   0.0000 
26    H7       1.4516   -9.1225    2.2026 H       1  LIG   0.0403   0.1500 
27    H8       2.4580   -9.8882    0.0213 H       1  LIG   0.0372   0.1500 
28    H9       4.9331   -3.8510    5.5277 H       1  LIG   0.1630   0.1500 
29    H10      5.5054   -1.4968    5.8952 H       1  LIG   0.1406   0.1500 
30    H11      6.9115   -1.1857    1.8330 H       1  LIG   0.1391   0.1500 
31    H12      6.3413   -3.5442    1.4503 H       1  LIG   0.1482   0.1500 
@<TRIPOS>BOND
1     1     2     1
2     1     23    1
3     1     24    1
4     1     25    1
5     2     3     1
6     3     8     ar
7     3     4     ar
8     4     5     ar
9     4     9     1
10    5     6     ar
11    6     7     ar
12    6     26    1
13    7     8     ar
14    7     27    1
15    9     10    1
16    9     20    1
17    10    11    2
18    10    12    2
19    10    13    1
20    13    18    ar
21    13    14    ar
22    14    15    ar
23    14    28    1
24    15    16    ar
25    15    29    1
26    16    17    ar
27    16    19    1
28    17    18    ar
29    17    30    1
30    18    31    1
31    19    21    1
32    19    22    1
@<TRIPOS>SUBSTRUCTURE
1   LIG    1    
 
########## Number      : 541
########## Name        : ZINC00002100
########## Description : AM1BCC_CHARGES =   0.0002 ORIGINAL_CHARGES =   0.0000

@<TRIPOS>MOLECULE
ZINC00002100
35    36    1     0     0    
SMALL
USER_CHARGES
****
****
@<TRIPOS>ATOM
1     C1       5.8049  -10.5245   -0.2687 C.3     1  LIG   0.1106   0.2800 
2     O1       6.0322   -9.1894    0.1663 O.3     1  LIG  -0.4197  -0.3625 
3     C2       5.2986   -8.7464    1.2340 C.ar    1  LIG   0.6979   0.3925 
4     C3       4.3626   -9.5000    1.9197 C.ar    1  LIG  -0.4893  -0.1500 
5     C4       3.7320   -8.8745    2.9800 C.ar    1  LIG   0.7262   0.3925 
6     N1       3.9835   -7.6050    3.3530 N.ar    1  LIG  -0.8388  -0.6200 
7     C5       4.8843   -6.9551    2.6010 C.ar    1  LIG   0.9493   0.8190 
8     N2       5.5811   -7.4691    1.5725 N.ar    1  LIG  -0.7634  -0.6200 
9     N3       5.2825   -5.6440    2.9894 N.pl3   1  LIG  -0.8438  -0.7570 
10    S1       4.1894   -4.7019    3.8814 S.o2    1  LIG   1.5532   1.4470 
11    O2       2.9576   -4.5482    3.1310 O.2     1  LIG  -0.6459  -0.6500 
12    O3       4.1600   -5.1566    5.2581 O.2     1  LIG  -0.6464  -0.6500 
13    C6       5.0173   -3.1382    3.8583 C.ar    1  LIG  -0.4789  -0.0090 
14    C7       5.9550   -2.8461    4.8470 C.ar    1  LIG   0.0379  -0.1500 
15    C8       6.5926   -1.6037    4.8401 C.ar    1  LIG  -0.2427  -0.1500 
16    C9       6.2916   -0.6472    3.8620 C.ar    1  LIG   0.2506   0.1000 
17    C10      5.3466   -0.9639    2.8776 C.ar    1  LIG  -0.2424  -0.1500 
18    C11      4.7025   -2.2031    2.8744 C.ar    1  LIG   0.0374  -0.1500 
19    N4       6.9425    0.5769    3.8479 N.pl3   1  LIG  -0.8552  -0.9000 
20    O4       2.8033   -9.6357    3.6707 O.3     1  LIG  -0.4407  -0.3625 
21    C12      2.1790   -8.9412    4.7474 C.3     1  LIG   0.1200   0.2800 
22    H1       5.9269   -5.1855    2.3374 H       1  LIG   0.4714   0.4200 
23    H2       7.5954    0.8177    4.5816 H       1  LIG   0.4263   0.4000 
24    H3       6.6955    1.2800    3.1643 H       1  LIG   0.4261   0.4000 
25    H4       6.4629  -10.7139   -1.1222 H       1  LIG   0.0744   0.0000 
26    H5       6.0618  -11.2445    0.5153 H       1  LIG   0.0413   0.0000 
27    H6       4.7726  -10.6589   -0.6085 H       1  LIG   0.0428   0.0000 
28    H7       4.1191  -10.5240    1.6692 H       1  LIG   0.1718   0.1500 
29    H8       6.2068   -3.5666    5.6198 H       1  LIG   0.1587   0.1500 
30    H9       7.3293   -1.3853    5.6099 H       1  LIG   0.1409   0.1500 
31    H10      5.1022   -0.2412    2.1023 H       1  LIG   0.1407   0.1500 
32    H11      3.9720   -2.4168    2.0997 H       1  LIG   0.1512   0.1500 
33    H12      1.4668   -9.6253    5.2184 H       1  LIG   0.0609   0.0000 
34    H13      2.9134   -8.6466    5.5049 H       1  LIG   0.0592   0.0000 
35    H14      1.6201   -8.0717    4.3844 H       1  LIG   0.0586   0.0000 
@<TRIPOS>BOND
1     1     2     1
2     1     25    1
3     1     26    1
4     1     27    1
5     2     3     1
6     3     8     ar
7     3     4     ar
8     4     5     ar
9     4     28    1
10    5     6     ar
11    5     20    1
12    6     7     ar
13    7     8     ar
14    7     9     1
15    9     10    1
16    9     22    1
17    10    11    2
18    10    12    2
19    10    13    1
20    13    18    ar
21    13    14    ar
22    14    15    ar
23    14    29    1
24    15    16    ar
25    15    30    1
26    16    17    ar
27    16    19    1
28    17    18    ar
29    17    31    1
30    18    32    1
31    19    23    1
32    19    24    1
33    20    21    1
34    21    33    1
35    21    34    1
36    21    35    1
@<TRIPOS>SUBSTRUCTURE
1   LIG    1    
 
########## Number      : 542
########## Name        : ZINC00002101
########## Description : AM1BCC_CHARGES =  -0.0002 ORIGINAL_CHARGES =  -0.0000

@<TRIPOS>MOLECULE
ZINC00002101
19    19    1     0     0    
SMALL
USER_CHARGES
****
****
@<TRIPOS>ATOM
1     C1       5.4343   -7.5366   -2.2005 C.ar    1  LIG  -0.2373  -0.1500 
2     C2       4.1915   -7.0039   -2.5499 C.ar    1  LIG   0.0292  -0.1500 
3     C3       3.3499   -6.5210   -1.5498 C.ar    1  LIG  -0.4575  -0.0090 
4     C4       3.7398   -6.5524   -0.2124 C.ar    1  LIG   0.0336  -0.1500 
5     C5       4.9849   -7.0874    0.1251 C.ar    1  LIG  -0.2376  -0.1500 
6     C6       5.8481   -7.5782   -0.8629 C.ar    1  LIG   0.2353   0.1000 
7     N1       7.0744   -8.1267   -0.5200 N.pl3   1  LIG  -0.8486  -0.9000 
8     S1       1.7878   -5.8193   -1.9869 S.o2    1  LIG   1.5383   1.4470 
9     O1       1.3980   -4.9065   -0.9311 O.2     1  LIG  -0.6668  -0.6500 
10    O2       1.8748   -5.3708   -3.3620 O.2     1  LIG  -0.6664  -0.6500 
11    N2       0.7809   -7.1973   -1.9165 N.pl3   1  LIG  -1.0272  -0.9780 
12    H1       7.3869   -8.1202    0.4417 H       1  LIG   0.4191   0.4000 
13    H2       7.7115   -8.4447   -1.2381 H       1  LIG   0.4189   0.4000 
14    H3       0.0827   -7.1810   -1.1627 H       1  LIG   0.4456   0.4200 
15    H4       1.2549   -8.1081   -1.9582 H       1  LIG   0.4422   0.4200 
16    H5       6.0829   -7.9192   -2.9854 H       1  LIG   0.1387   0.1500 
17    H6       3.9005   -6.9819   -3.5961 H       1  LIG   0.1526   0.1500 
18    H7       3.0946   -6.1760    0.5760 H       1  LIG   0.1491   0.1500 
19    H8       5.2797   -7.1163    1.1717 H       1  LIG   0.1386   0.1500 
@<TRIPOS>BOND
1     1     6     ar
2     1     2     ar
3     1     16    1
4     2     3     ar
5     2     17    1
6     3     4     ar
7     3     8     1
8     4     5     ar
9     4     18    1
10    5     6     ar
11    5     19    1
12    6     7     1
13    7     12    1
14    7     13    1
15    8     9     2
16    8     10    2
17    8     11    1
18    11    14    1
19    11    15    1
@<TRIPOS>SUBSTRUCTURE
1   LIG    1    
 
########## Number      : 543
########## Name        : ZINC00002103
########## Description : AM1BCC_CHARGES =  -0.0002 ORIGINAL_CHARGES =   0.0000

@<TRIPOS>MOLECULE
ZINC00002103
41    42    1     0     0    
SMALL
USER_CHARGES
****
****
@<TRIPOS>ATOM
1     C1       6.4929  -10.7213   -2.2825 C.3     1  LIG  -0.1273   0.0000 
2     C2       5.2616  -11.4489   -1.7462 C.3     1  LIG   0.1458   0.2800 
3     C3       5.4942  -12.0173   -0.3477 C.3     1  LIG  -0.1267   0.0000 
4     O1       4.0463  -10.6841   -1.8617 O.3     1  LIG  -0.3499  -0.3625 
5     C4       3.9864   -9.5374   -1.1198 C.ar    1  LIG   0.1255   0.0825 
6     C5       3.4122   -9.5645    0.1504 C.ar    1  LIG  -0.1549  -0.1500 
7     C6       3.2860   -8.3840    0.8873 C.ar    1  LIG  -0.0900  -0.1500 
8     C7       3.7126   -7.1669    0.3416 C.ar    1  LIG  -0.1570   0.0862 
9     C8       4.2463   -7.1429   -0.9546 C.ar    1  LIG  -0.0634  -0.1500 
10    C9       4.3716   -8.3245   -1.6875 C.ar    1  LIG  -0.1536  -0.1500 
11    C10      3.6138   -5.8804    1.0773 C.2     1  LIG   0.6985   0.7201 
12    O2       3.5990   -4.8135    0.4782 O.2     1  LIG  -0.5630  -0.5700 
13    N1       3.5456   -5.9843    2.4975 N.am    1  LIG  -0.6732  -0.7943 
14    S1       3.4106   -4.6285    3.5249 S.o2    1  LIG   1.5379   1.4470 
15    O3       4.6086   -3.8201    3.4118 O.2     1  LIG  -0.6442  -0.6500 
16    O4       2.0972   -4.0363    3.3650 O.2     1  LIG  -0.6407  -0.6500 
17    C11      3.4494   -5.4156    5.1090 C.ar    1  LIG  -0.4747  -0.0090 
18    C12      2.2567   -5.8243    5.7024 C.ar    1  LIG   0.0342  -0.1500 
19    C13      2.2907   -6.4287    6.9608 C.ar    1  LIG  -0.2407  -0.1500 
20    C14      3.5037   -6.6147    7.6364 C.ar    1  LIG   0.2444   0.1000 
21    C15      4.6900   -6.1985    7.0184 C.ar    1  LIG  -0.2408  -0.1500 
22    C16      4.6684   -5.5929    5.7603 C.ar    1  LIG   0.0339  -0.1500 
23    N2       3.5337   -7.2380    8.8745 N.pl3   1  LIG  -0.8504  -0.9000 
24    H1       3.6733   -6.8928    2.9533 H       1  LIG   0.3293   0.4200 
25    H2       2.6725   -7.4940    9.3387 H       1  LIG   0.4236   0.4000 
26    H3       4.4049   -7.3279    9.3802 H       1  LIG   0.4235   0.4000 
27    H4       6.2944  -10.3065   -3.2762 H       1  LIG   0.0498   0.0000 
28    H5       6.7870   -9.8913   -1.6320 H       1  LIG   0.0461   0.0000 
29    H6       7.3458  -11.4039   -2.3558 H       1  LIG   0.0476   0.0000 
30    H7       5.0977  -12.3093   -2.4072 H       1  LIG   0.0786   0.0000 
31    H8       4.5923  -12.5165    0.0215 H       1  LIG   0.0478   0.0000 
32    H9       6.3138  -12.7432   -0.3552 H       1  LIG   0.0478   0.0000 
33    H10      5.7529  -11.2320    0.3699 H       1  LIG   0.0447   0.0000 
34    H11      3.0537  -10.4995    0.5722 H       1  LIG   0.1487   0.1500 
35    H12      2.8216   -8.4433    1.8669 H       1  LIG   0.1349   0.1500 
36    H13      4.5701   -6.2097   -1.4096 H       1  LIG   0.1620   0.1500 
37    H14      4.7691   -8.2891   -2.6979 H       1  LIG   0.1522   0.1500 
38    H15      1.3003   -5.6902    5.2054 H       1  LIG   0.1562   0.1500 
39    H16      1.3570   -6.7534    7.4147 H       1  LIG   0.1413   0.1500 
40    H17      5.6456   -6.3420    7.5178 H       1  LIG   0.1410   0.1500 
41    H18      5.6046   -5.2774    5.3091 H       1  LIG   0.1550   0.1500 
@<TRIPOS>BOND
1     1     2     1
2     1     27    1
3     1     28    1
4     1     29    1
5     2     3     1
6     2     4     1
7     2     30    1
8     3     31    1
9     3     32    1
10    3     33    1
11    4     5     1
12    5     10    ar
13    5     6     ar
14    6     7     ar
15    6     34    1
16    7     8     ar
17    7     35    1
18    8     9     ar
19    8     11    1
20    9     10    ar
21    9     36    1
22    10    37    1
23    11    12    2
24    11    13    am
25    13    14    1
26    13    24    1
27    14    15    2
28    14    16    2
29    14    17    1
30    17    22    ar
31    17    18    ar
32    18    19    ar
33    18    38    1
34    19    20    ar
35    19    39    1
36    20    21    ar
37    20    23    1
38    21    22    ar
39    21    40    1
40    22    41    1
41    23    25    1
42    23    26    1
@<TRIPOS>SUBSTRUCTURE
1   LIG    1    
 
########## Number      : 544
########## Name        : ZINC00002104
########## Description : AM1BCC_CHARGES =   0.0003 ORIGINAL_CHARGES =  -0.0000

@<TRIPOS>MOLECULE
ZINC00002104
27    28    1     0     0    
SMALL
USER_CHARGES
****
****
@<TRIPOS>ATOM
1     C1       4.5980   -8.4596    0.9495 C.ar    1  LIG  -0.2467  -0.1500 
2     C2       3.8912   -7.2789    0.7110 C.ar    1  LIG   0.0419  -0.1500 
3     C3       4.2567   -6.4699   -0.3630 C.ar    1  LIG  -0.4901  -0.0090 
4     C4       5.3073   -6.8314   -1.2040 C.ar    1  LIG   0.0457  -0.1500 
5     C5       6.0068   -8.0143   -0.9557 C.ar    1  LIG  -0.2481  -0.1500 
6     C6       5.6571   -8.8442    0.1172 C.ar    1  LIG   0.2664   0.1000 
7     N1       6.3675  -10.0075    0.3705 N.pl3   1  LIG  -0.8639  -0.9000 
8     S1       3.3513   -4.9860   -0.6905 S.o2    1  LIG   1.5404   1.4470 
9     O1       3.4618   -4.7118   -2.1100 O.2     1  LIG  -0.6574  -0.6500 
10    O2       2.0487   -5.1262   -0.0686 O.2     1  LIG  -0.6535  -0.6500 
11    N2       4.2759   -3.8558    0.1794 N.pl3   1  LIG  -0.8659  -0.7570 
12    C7       3.7397   -2.5541    0.4251 C.ar    1  LIG   0.5555   0.5090 
13    C8       2.9288   -1.8640   -0.4571 C.ar    1  LIG   0.2445   0.1600 
14    N3       2.5099   -0.6034   -0.2099 N.ar    1  LIG  -0.5971  -0.6200 
15    C9       2.9471   -0.0485    0.9377 C.ar    1  LIG   0.2424   0.1600 
16    C10      3.7788   -0.7243    1.8036 C.ar    1  LIG   0.3161   0.1600 
17    N4       4.1987   -1.9822    1.5577 N.ar    1  LIG  -0.6806  -0.6200 
18    H1       7.1074  -10.3015   -0.2529 H       1  LIG   0.4345   0.4000 
19    H2       6.0898  -10.6232    1.1231 H       1  LIG   0.4346   0.4000 
20    H3       4.8761   -4.2008    0.9369 H       1  LIG   0.4617   0.4200 
21    H4       4.3128   -9.0829    1.7941 H       1  LIG   0.1425   0.1500 
22    H5       3.0728   -7.0101    1.3725 H       1  LIG   0.1552   0.1500 
23    H6       5.5999   -6.2099   -2.0454 H       1  LIG   0.1566   0.1500 
24    H7       6.8309   -8.2866   -1.6113 H       1  LIG   0.1423   0.1500 
25    H8       2.5869   -2.2792   -1.3966 H       1  LIG   0.0551   0.1500 
26    H9       2.6109    0.9615    1.1376 H       1  LIG   0.0358   0.1500 
27    H10      4.1362   -0.2739    2.7215 H       1  LIG   0.0324   0.1500 
@<TRIPOS>BOND
1     1     6     ar
2     1     2     ar
3     1     21    1
4     2     3     ar
5     2     22    1
6     3     4     ar
7     3     8     1
8     4     5     ar
9     4     23    1
10    5     6     ar
11    5     24    1
12    6     7     1
13    7     18    1
14    7     19    1
15    8     9     2
16    8     10    2
17    8     11    1
18    11    12    1
19    11    20    1
20    12    17    ar
21    12    13    ar
22    13    14    ar
23    13    25    1
24    14    15    ar
25    15    16    ar
26    15    26    1
27    16    17    ar
28    16    27    1
@<TRIPOS>SUBSTRUCTURE
1   LIG    1    
 
########## Number      : 545
########## Name        : ZINC00002105
########## Description : AM1BCC_CHARGES =  -0.0002 ORIGINAL_CHARGES =   0.0000

@<TRIPOS>MOLECULE
ZINC00002105
28    29    1     0     0    
SMALL
USER_CHARGES
****
****
@<TRIPOS>ATOM
1     C1       5.6654   -8.7749   -1.4950 C.ar    1  LIG  -0.0581  -0.1500 
2     C2       4.6075   -9.6468   -1.2688 C.ar    1  LIG  -0.2801  -0.1500 
3     C3       3.5382   -9.1855   -0.5207 C.ar    1  LIG   0.4268   0.1600 
4     N1       3.4592   -7.9387   -0.0045 N.ar    1  LIG  -0.7102  -0.6200 
5     C4       4.4899   -7.1036   -0.2662 C.ar    1  LIG   0.6660   0.5090 
6     C5       5.6193   -7.4820   -0.9803 C.ar    1  LIG  -0.2882  -0.1500 
7     N2       4.3529   -5.8291    0.3700 N.pl3   1  LIG  -0.8766  -0.7570 
8     S1       4.9594   -4.4443   -0.4101 S.o2    1  LIG   1.5413   1.4470 
9     O1       6.3857   -4.3371   -0.1718 O.2     1  LIG  -0.6621  -0.6500 
10    O2       4.4326   -4.3768   -1.7597 O.2     1  LIG  -0.6570  -0.6500 
11    C6       4.1680   -3.1707    0.5292 C.ar    1  LIG  -0.4856  -0.0090 
12    C7       4.7920   -2.6731    1.6715 C.ar    1  LIG   0.0447  -0.1500 
13    C8       4.1756   -1.6523    2.3985 C.ar    1  LIG  -0.2509  -0.1500 
14    C9       2.9430   -1.1248    1.9931 C.ar    1  LIG   0.2703   0.1000 
15    C10      2.3418   -1.6309    0.8335 C.ar    1  LIG  -0.2496  -0.1500 
16    C11      2.9487   -2.6515    0.0984 C.ar    1  LIG   0.0428  -0.1500 
17    N3       2.3433   -0.1009    2.7098 N.pl3   1  LIG  -0.8729  -0.9000 
18    H1       3.4801   -5.7360    0.9015 H       1  LIG   0.4608   0.4200 
19    H2       2.7645    0.2427    3.5625 H       1  LIG   0.4373   0.4000 
20    H3       1.4398    0.2583    2.4319 H       1  LIG   0.4374   0.4000 
21    H4       6.5295   -9.1028   -2.0656 H       1  LIG   0.1418   0.1500 
22    H5       4.6229  -10.6581   -1.6587 H       1  LIG   0.1448   0.1500 
23    H6       2.6903   -9.8281   -0.3068 H       1  LIG   0.0210   0.1500 
24    H7       6.4570   -6.8138   -1.1411 H       1  LIG   0.1639   0.1500 
25    H8       5.7462   -3.0642    2.0125 H       1  LIG   0.1564   0.1500 
26    H9       4.6678   -1.2690    3.2895 H       1  LIG   0.1408   0.1500 
27    H10      1.3899   -1.2304    0.4921 H       1  LIG   0.1411   0.1500 
28    H11      2.4560   -3.0244   -0.7948 H       1  LIG   0.1539   0.1500 
@<TRIPOS>BOND
1     1     6     ar
2     1     2     ar
3     1     21    1
4     2     3     ar
5     2     22    1
6     3     4     ar
7     3     23    1
8     4     5     ar
9     5     6     ar
10    5     7     1
11    6     24    1
12    7     8     1
13    7     18    1
14    8     9     2
15    8     10    2
16    8     11    1
17    11    16    ar
18    11    12    ar
19    12    13    ar
20    12    25    1
21    13    14    ar
22    13    26    1
23    14    15    ar
24    14    17    1
25    15    16    ar
26    15    27    1
27    16    28    1
28    17    19    1
29    17    20    1
@<TRIPOS>SUBSTRUCTURE
1   LIG    1    
 
########## Number      : 546
########## Name        : ZINC00002106
########## Description : AM1BCC_CHARGES =   0.0003 ORIGINAL_CHARGES =   0.0000

@<TRIPOS>MOLECULE
ZINC00002106
33    35    1     0     0    
SMALL
USER_CHARGES
****
****
@<TRIPOS>ATOM
1     C1       1.1099   -8.9134   -2.7502 C.ar    1  LIG  -0.1377  -0.1500 
2     C2       0.7256   -8.4057   -1.5176 C.ar    1  LIG  -0.1139  -0.1500 
3     C3       1.0514   -7.0922   -1.1831 C.ar    1  LIG  -0.1726  -0.1500 
4     C4       1.7561   -6.2745   -2.0622 C.ar    1  LIG   0.3262   0.3100 
5     C5       2.1478   -6.7905   -3.3120 C.ar    1  LIG   0.2550   0.3100 
6     C6       1.8176   -8.1034   -3.6369 C.ar    1  LIG  -0.1434  -0.1500 
7     N1       2.8359   -6.0319   -4.1826 N.ar    1  LIG  -0.5964  -0.6200 
8     C7       3.1260   -4.7668   -3.8169 C.ar    1  LIG   0.2810   0.1600 
9     C8       2.7183   -4.2525   -2.6086 C.ar    1  LIG   0.5694   0.5090 
10    N2       2.0561   -5.0105   -1.7140 N.ar    1  LIG  -0.6927  -0.6200 
11    N3       3.0572   -2.9517   -2.1248 N.pl3   1  LIG  -0.8681  -0.7570 
12    S1       3.2037   -1.6661   -3.2271 S.o2    1  LIG   1.5408   1.4470 
13    O1       4.5002   -1.7282   -3.8732 O.2     1  LIG  -0.6587  -0.6500 
14    O2       1.9925   -1.5681   -4.0187 O.2     1  LIG  -0.6531  -0.6500 
15    C9       3.2257   -0.2872   -2.1196 C.ar    1  LIG  -0.4915  -0.0090 
16    C10      2.0352    0.3655   -1.8059 C.ar    1  LIG   0.0421  -0.1500 
17    C11      2.0646    1.4672   -0.9480 C.ar    1  LIG  -0.2470  -0.1500 
18    C12      3.2724    1.9225   -0.4037 C.ar    1  LIG   0.2681   0.1000 
19    C13      4.4578    1.2585   -0.7439 C.ar    1  LIG  -0.2488  -0.1500 
20    C14      4.4408    0.1558   -1.6007 C.ar    1  LIG   0.0463  -0.1500 
21    N4       3.2967    3.0241    0.4374 N.pl3   1  LIG  -0.8647  -0.9000 
22    H1       2.6805   -2.7500   -1.1919 H       1  LIG   0.4614   0.4200 
23    H2       2.4374    3.4880    0.6999 H       1  LIG   0.4355   0.4000 
24    H3       4.1664    3.3371    0.8474 H       1  LIG   0.4355   0.4000 
25    H4       0.8626   -9.9350   -3.0232 H       1  LIG   0.1375   0.1500 
26    H5       0.1745   -9.0264   -0.8173 H       1  LIG   0.1363   0.1500 
27    H6       0.7447   -6.7041   -0.2139 H       1  LIG   0.1501   0.1500 
28    H7       2.1159   -8.5116   -4.6003 H       1  LIG   0.1520   0.1500 
29    H8       3.7035   -4.2051   -4.5397 H       1  LIG   0.0543   0.1500 
30    H9       1.0826    0.0357   -2.2100 H       1  LIG   0.1545   0.1500 
31    H10      1.1317    1.9716   -0.7063 H       1  LIG   0.1427   0.1500 
32    H11      5.4095    1.5982   -0.3414 H       1  LIG   0.1425   0.1500 
33    H12      5.3760   -0.3400   -1.8441 H       1  LIG   0.1577   0.1500 
@<TRIPOS>BOND
1     1     6     ar
2     1     2     ar
3     1     25    1
4     2     3     ar
5     2     26    1
6     3     4     ar
7     3     27    1
8     4     10    ar
9     4     5     ar
10    5     6     ar
11    5     7     ar
12    6     28    1
13    7     8     ar
14    8     9     ar
15    8     29    1
16    9     10    ar
17    9     11    1
18    11    12    1
19    11    22    1
20    12    13    2
21    12    14    2
22    12    15    1
23    15    20    ar
24    15    16    ar
25    16    17    ar
26    16    30    1
27    17    18    ar
28    17    31    1
29    18    19    ar
30    18    21    1
31    19    20    ar
32    19    32    1
33    20    33    1
34    21    23    1
35    21    24    1
@<TRIPOS>SUBSTRUCTURE
1   LIG    1    
 
########## Number      : 547
########## Name        : ZINC00002107
########## Description : AM1BCC_CHARGES =   0.0000 ORIGINAL_CHARGES =  -0.0000

@<TRIPOS>MOLECULE
ZINC00002107
28    29    1     0     0    
SMALL
USER_CHARGES
****
****
@<TRIPOS>ATOM
1     C1       5.6289   -9.9138   -2.0828 C.3     1  LIG  -0.1306   0.1810 
2     C2       4.7483   -9.0680   -1.2356 C.2     1  LIG   0.4060   0.1078 
3     C3       4.9109   -7.6605   -1.0081 C.2     1  LIG  -0.3488  -0.1500 
4     C4       3.9199   -7.1952   -0.1742 C.2     1  LIG   0.1828   0.1860 
5     S1       2.9005   -8.4917    0.2477 S.3     1  LIG   0.1467   0.1807 
6     N1       3.7115   -9.6452   -0.6244 N.2     1  LIG  -0.5321  -0.5095 
7     N2       3.7065   -5.8770    0.3045 N.pl3   1  LIG  -0.7277  -0.7040 
8     S2       4.7521   -4.6325   -0.1493 S.o2    1  LIG   1.5365   1.4470 
9     O1       6.0617   -4.8604    0.4304 O.2     1  LIG  -0.6520  -0.6500 
10    O2       4.6102   -4.3697   -1.5684 O.2     1  LIG  -0.6520  -0.6500 
11    C5       4.0256   -3.2686    0.7132 C.ar    1  LIG  -0.4884  -0.0090 
12    C6       4.4527   -2.9650    2.0044 C.ar    1  LIG   0.0420  -0.1500 
13    C7       3.8903   -1.8752    2.6726 C.ar    1  LIG  -0.2485  -0.1500 
14    C8       2.9157   -1.0795    2.0567 C.ar    1  LIG   0.2666   0.1000 
15    C9       2.5008   -1.4053    0.7591 C.ar    1  LIG  -0.2484  -0.1500 
16    C10      3.0561   -2.4926    0.0810 C.ar    1  LIG   0.0423  -0.1500 
17    N3       2.3451   -0.0122    2.7331 N.pl3   1  LIG  -0.8667  -0.9000 
18    H1       2.9056   -5.7205    0.9245 H       1  LIG   0.4530   0.4200 
19    H2       2.6759    0.2460    3.6532 H       1  LIG   0.4352   0.4000 
20    H3       1.6725    0.5854    2.2713 H       1  LIG   0.4354   0.4000 
21    H4       6.4383   -9.3245   -2.5258 H       1  LIG   0.0529   0.0000 
22    H5       6.0807  -10.7140   -1.4875 H       1  LIG   0.0602   0.0000 
23    H6       5.0563  -10.3676   -2.8982 H       1  LIG   0.0603   0.0000 
24    H7       5.7038   -7.0620   -1.4369 H       1  LIG   0.1809   0.1500 
25    H8       5.2088   -3.5609    2.5073 H       1  LIG   0.1553   0.1500 
26    H9       4.2221   -1.6486    3.6833 H       1  LIG   0.1419   0.1500 
27    H10      1.7386   -0.8086    0.2630 H       1  LIG   0.1419   0.1500 
28    H11      2.7161   -2.7178   -0.9257 H       1  LIG   0.1553   0.1500 
@<TRIPOS>BOND
1     1     2     1
2     1     21    1
3     1     22    1
4     1     23    1
5     2     6     2
6     2     3     1
7     3     4     2
8     3     24    1
9     4     5     1
10    4     7     1
11    5     6     1
12    7     8     1
13    7     18    1
14    8     9     2
15    8     10    2
16    8     11    1
17    11    16    ar
18    11    12    ar
19    12    13    ar
20    12    25    1
21    13    14    ar
22    13    26    1
23    14    15    ar
24    14    17    1
25    15    16    ar
26    15    27    1
27    16    28    1
28    17    19    1
29    17    20    1
@<TRIPOS>SUBSTRUCTURE
1   LIG    1    
 
########## Number      : 548
########## Name        : ZINC00002115
########## Description : AM1BCC_CHARGES =   0.0003 ORIGINAL_CHARGES =  -0.0000

@<TRIPOS>MOLECULE
ZINC00002115
32    31    1     0     0    
SMALL
USER_CHARGES
****
****
@<TRIPOS>ATOM
1     C1       4.7273   -4.5381   -1.4148 C.3     1  LIG  -0.1317   0.0000 
2     C2       4.7100   -4.9702    0.0470 C.3     1  LIG  -0.0505   0.0000 
3     C3       3.3234   -5.3335    0.6720 C.3     1  LIG  -0.4474   0.2104 
4     C4       3.5993   -5.7016    2.1453 C.3     1  LIG  -0.0746   0.0000 
5     S1       2.2128   -3.8615    0.5967 S.o2    1  LIG   1.3559   1.0896 
6     O1       3.0302   -2.6757    0.7894 O.2     1  LIG  -0.6307  -0.6500 
7     O2       1.3728   -3.9705   -0.5808 O.2     1  LIG  -0.6464  -0.6500 
8     C5       1.1288   -3.9394    2.0216 C.3     1  LIG  -0.3216   0.1052 
9     C6       0.0917   -2.8315    1.9901 C.3     1  LIG  -0.0814   0.0000 
10    S2       2.6507   -6.8155   -0.1988 S.o2    1  LIG   1.3612   1.0896 
11    O3       2.3463   -6.4642   -1.5732 O.2     1  LIG  -0.6240  -0.6500 
12    O4       3.5500   -7.9231    0.0751 O.2     1  LIG  -0.6429  -0.6500 
13    C7       1.0904   -7.2145    0.5768 C.3     1  LIG  -0.3402   0.1052 
14    C8       0.4962   -8.4889    0.0043 C.3     1  LIG  -0.0758   0.0000 
15    H1       5.7251   -4.1663   -1.6731 H       1  LIG   0.0568   0.0000 
16    H2       4.5218   -5.3747   -2.0865 H       1  LIG   0.0856   0.0000 
17    H3       4.0161   -3.7356   -1.6229 H       1  LIG   0.0514   0.0000 
18    H4       5.3895   -5.8270    0.1454 H       1  LIG   0.0682   0.0000 
19    H5       5.1648   -4.1614    0.6341 H       1  LIG   0.0799   0.0000 
20    H6       2.6995   -6.0310    2.6701 H       1  LIG   0.0441   0.0000 
21    H7       4.3267   -6.5173    2.2241 H       1  LIG   0.0916   0.0000 
22    H8       4.0049   -4.8454    2.6961 H       1  LIG   0.0607   0.0000 
23    H9       0.6323   -4.9091    2.0341 H       1  LIG   0.1064   0.0000 
24    H10      1.7460   -3.8361    2.9181 H       1  LIG   0.1169   0.0000 
25    H11     -0.5457   -2.8831    2.8781 H       1  LIG   0.0548   0.0000 
26    H12      0.5671   -1.8458    1.9675 H       1  LIG   0.0587   0.0000 
27    H13     -0.5488   -2.9147    1.1064 H       1  LIG   0.0621   0.0000 
28    H14      1.2573   -7.3368    1.6482 H       1  LIG   0.1058   0.0000 
29    H15      0.4053   -6.3840    0.3974 H       1  LIG   0.1325   0.0000 
30    H16     -0.4638   -8.7077    0.4818 H       1  LIG   0.0550   0.0000 
31    H17      0.3284   -8.3971   -1.0735 H       1  LIG   0.0642   0.0000 
32    H18      1.1605   -9.3433    0.1679 H       1  LIG   0.0557   0.0000 
@<TRIPOS>BOND
1     1     2     1
2     1     15    1
3     1     16    1
4     1     17    1
5     2     3     1
6     2     18    1
7     2     19    1
8     3     4     1
9     3     5     1
10    3     10    1
11    4     20    1
12    4     21    1
13    4     22    1
14    5     6     2
15    5     7     2
16    5     8     1
17    8     9     1
18    8     23    1
19    8     24    1
20    9     25    1
21    9     26    1
22    9     27    1
23    10    11    2
24    10    12    2
25    10    13    1
26    13    14    1
27    13    28    1
28    13    29    1
29    14    30    1
30    14    31    1
31    14    32    1
@<TRIPOS>SUBSTRUCTURE
1   LIG    1    
 
########## Number      : 549
########## Name        : ZINC00002116
########## Description : AM1BCC_CHARGES =  -0.0002 ORIGINAL_CHARGES =  -0.0000

@<TRIPOS>MOLECULE
ZINC00002116
29    28    1     0     0    
SMALL
USER_CHARGES
****
****
@<TRIPOS>ATOM
1     C1      -1.5926   -3.7922   -0.7702 C.3     1  LIG  -0.0715   0.0000 
2     C2      -0.5314   -4.7453   -0.2519 C.3     1  LIG  -0.3593   0.1052 
3     S1       1.1111   -4.0620   -0.4461 S.o2    1  LIG   1.3541   1.0896 
4     O1       1.4047   -4.0538   -1.8675 O.2     1  LIG  -0.6268  -0.6500 
5     O2       1.1447   -2.8162    0.3003 O.2     1  LIG  -0.6383  -0.6500 
6     C3       2.2705   -5.2370    0.3785 C.3     1  LIG  -0.4381   0.2104 
7     C4       3.6981   -4.7619    0.0562 C.3     1  LIG  -0.0728   0.0000 
8     C5       2.0525   -5.1837    1.8990 C.3     1  LIG  -0.0779   0.0000 
9     S2       2.0229   -6.9465   -0.2296 S.o2    1  LIG   1.3445   1.0896 
10    O3       0.8402   -7.4861    0.4168 O.2     1  LIG  -0.6483  -0.6500 
11    O4       2.1219   -6.9358   -1.6769 O.2     1  LIG  -0.6449  -0.6500 
12    C6       3.4177   -7.8913    0.3769 C.3     1  LIG  -0.3116   0.1052 
13    C7       3.2863   -9.3616    0.0248 C.3     1  LIG  -0.0804   0.0000 
14    H1      -2.5872   -4.2346   -0.6590 H       1  LIG   0.0593   0.0000 
15    H2      -1.5775   -2.8461   -0.2198 H       1  LIG   0.0559   0.0000 
16    H3      -1.4355   -3.5655   -1.8295 H       1  LIG   0.0556   0.0000 
17    H4      -0.6955   -4.9434    0.8094 H       1  LIG   0.1340   0.0000 
18    H5      -0.5770   -5.6800   -0.8148 H       1  LIG   0.1412   0.0000 
19    H6       4.4501   -5.3266    0.6161 H       1  LIG   0.0541   0.0000 
20    H7       3.9253   -4.8705   -1.0097 H       1  LIG   0.0789   0.0000 
21    H8       3.8320   -3.7053    0.3142 H       1  LIG   0.0685   0.0000 
22    H9       2.7493   -5.8415    2.4278 H       1  LIG   0.0468   0.0000 
23    H10      2.2033   -4.1717    2.2901 H       1  LIG   0.0898   0.0000 
24    H11      1.0409   -5.4930    2.1778 H       1  LIG   0.0737   0.0000 
25    H12      4.3243   -7.4853   -0.0781 H       1  LIG   0.1214   0.0000 
26    H13      3.4651   -7.7707    1.4613 H       1  LIG   0.1157   0.0000 
27    H14      4.1533   -9.9189    0.3922 H       1  LIG   0.0566   0.0000 
28    H15      2.3871   -9.7967    0.4724 H       1  LIG   0.0621   0.0000 
29    H16      3.2227   -9.5036   -1.0588 H       1  LIG   0.0575   0.0000 
@<TRIPOS>BOND
1     1     2     1
2     1     14    1
3     1     15    1
4     1     16    1
5     2     3     1
6     2     17    1
7     2     18    1
8     3     4     2
9     3     5     2
10    3     6     1
11    6     7     1
12    6     8     1
13    6     9     1
14    7     19    1
15    7     20    1
16    7     21    1
17    8     22    1
18    8     23    1
19    8     24    1
20    9     10    2
21    9     11    2
22    9     12    1
23    12    13    1
24    12    25    1
25    12    26    1
26    13    27    1
27    13    28    1
28    13    29    1
@<TRIPOS>SUBSTRUCTURE
1   LIG    1    
 
########## Number      : 550
########## Name        : ZINC00002125
########## Description : AM1BCC_CHARGES =   0.9996 ORIGINAL_CHARGES =   1.0000

@<TRIPOS>MOLECULE
ZINC00002125
46    46    1     0     0    
SMALL
USER_CHARGES
****
****
@<TRIPOS>ATOM
1     C1       3.8339   -7.9430   -1.6881 C.3     1  LIG  -0.1362   0.0000 
2     C2       4.8024   -8.5258   -0.6740 C.3     1  LIG   0.1132   0.5030 
3     C3       5.1695   -8.8541    1.7803 C.3     1  LIG   0.1131   0.5030 
4     C4       4.5567   -8.5892    3.1443 C.3     1  LIG  -0.1363   0.0000 
5     C5       4.8320   -6.5159    0.8669 C.3     1  LIG   0.0874   0.5030 
6     C6       3.5638   -5.7234    1.1627 C.3     1  LIG   0.1146   0.2800 
7     O1       3.9372   -4.3517    1.2902 O.3     1  LIG  -0.3282  -0.3625 
8     C7       2.9518   -3.4384    1.5693 C.ar    1  LIG   0.0993   0.0825 
9     C8       1.5968   -3.7690    1.7240 C.ar    1  LIG  -0.2009  -0.1500 
10    C9       0.6415   -2.7856    2.0145 C.ar    1  LIG  -0.0383  -0.1435 
11    C10      1.0472   -1.4556    2.1240 C.ar    1  LIG  -0.1373  -0.1500 
12    C11      2.3914   -1.1161    1.9719 C.ar    1  LIG  -0.0895  -0.1500 
13    C12      3.3640   -2.0946    1.6970 C.ar    1  LIG  -0.0787  -0.1435 
14    C13      4.8241   -1.6850    1.5370 C.3     1  LIG  -0.0183   0.1435 
15    C14      5.0169   -0.7592    0.3322 C.3     1  LIG  -0.0901   0.0000 
16    C15      5.3740   -1.0413    2.8138 C.3     1  LIG  -0.0902   0.0000 
17    C16     -0.8073   -3.1505    2.1440 C.3     1  LIG  -0.0616   0.1435 
18    H1       4.0088   -8.3929   -2.6707 H       1  LIG   0.1019   0.0000 
19    H2       2.7958   -8.1458   -1.4054 H       1  LIG   0.0663   0.0000 
20    H3       3.9544   -6.8612   -1.7960 H       1  LIG   0.0710   0.0000 
21    H4       4.6775   -9.6133   -0.6427 H       1  LIG   0.1003   0.0000 
22    H5       5.8454   -8.2889   -0.9083 H       1  LIG   0.1055   0.0000 
23    H6       4.9991   -9.9009    1.5078 H       1  LIG   0.1002   0.0000 
24    H7       6.2441   -8.6454    1.7574 H       1  LIG   0.1055   0.0000 
25    H8       4.9893   -9.2696    3.8849 H       1  LIG   0.1019   0.0000 
26    H9       4.7447   -7.5678    3.4873 H       1  LIG   0.0713   0.0000 
27    H10      3.4741   -8.7523    3.1299 H       1  LIG   0.0662   0.0000 
28    H11      5.5705   -6.3913    1.6669 H       1  LIG   0.1192   0.0000 
29    H12      5.3134   -6.1615   -0.0515 H       1  LIG   0.1189   0.0000 
30    H13      2.8531   -5.8430    0.3366 H       1  LIG   0.0569   0.0000 
31    H14      3.1163   -6.0791    2.0981 H       1  LIG   0.0566   0.0000 
32    H15      1.2525   -4.7943    1.6228 H       1  LIG   0.1237   0.1500 
33    H16      0.3216   -0.6725    2.3291 H       1  LIG   0.1491   0.1500 
34    H17      2.6733   -0.0701    2.0678 H       1  LIG   0.1504   0.1500 
35    H18      5.4391   -2.5729    1.3499 H       1  LIG   0.0524   0.0000 
36    H19      6.0798   -0.5415    0.1811 H       1  LIG   0.0432   0.0000 
37    H20      4.6369   -1.2255   -0.5836 H       1  LIG   0.0366   0.0000 
38    H21      4.4982    0.1970    0.4607 H       1  LIG   0.0428   0.0000 
39    H22      6.4452   -0.8369    2.7097 H       1  LIG   0.0430   0.0000 
40    H23      4.8779   -0.0925    3.0443 H       1  LIG   0.0426   0.0000 
41    H24      5.2418   -1.7062    3.6746 H       1  LIG   0.0374   0.0000 
42    H25     -0.9206   -4.1483    2.5808 H       1  LIG   0.0423   0.0000 
43    H26     -1.3316   -2.4484    2.8009 H       1  LIG   0.0594   0.0000 
44    H27     -1.2859   -3.1374    1.1599 H       1  LIG   0.0571   0.0000 
45    N1       4.5026   -7.9951    0.7184 N.4     1  LIG  -0.6876  -0.9590 
46    H28      3.4899   -8.1191    0.8533 H       1  LIG   0.4435   0.4500 
@<TRIPOS>BOND
1     1     2     1
2     1     18    1
3     1     19    1
4     1     20    1
5     2     21    1
6     2     22    1
7     2     45    1
8     3     4     1
9     3     23    1
10    3     24    1
11    3     45    1
12    4     25    1
13    4     26    1
14    4     27    1
15    5     6     1
16    5     28    1
17    5     29    1
18    5     45    1
19    6     7     1
20    6     30    1
21    6     31    1
22    7     8     1
23    8     13    ar
24    8     9     ar
25    9     10    ar
26    9     32    1
27    10    11    ar
28    10    17    1
29    11    12    ar
30    11    33    1
31    12    13    ar
32    12    34    1
33    13    14    1
34    14    15    1
35    14    16    1
36    14    35    1
37    15    36    1
38    15    37    1
39    15    38    1
40    16    39    1
41    16    40    1
42    16    41    1
43    17    42    1
44    17    43    1
45    17    44    1
46    45    46    1
@<TRIPOS>SUBSTRUCTURE
1   LIG    1    
 
########## Number      : 551
########## Name        : ZINC00002131
########## Description : AM1BCC_CHARGES =   0.9999 ORIGINAL_CHARGES =   1.0000

@<TRIPOS>MOLECULE
ZINC00002131
41    43    1     0     0    
SMALL
USER_CHARGES
****
****
@<TRIPOS>ATOM
1     C1       6.2534   -8.0736    0.8220 C.2     1  LIG  -0.1553  -0.1500 
2     C2       4.9707   -7.4564    0.8934 C.2     1  LIG  -0.0942  -0.1500 
3     C3       4.8903   -6.2858    0.1567 C.2     1  LIG  -0.2469  -0.1400 
4     S1       6.4085   -5.9519   -0.6032 S.3     1  LIG   0.0386  -0.0800 
5     C4       7.1278   -7.3594    0.0387 C.2     1  LIG  -0.1135  -0.1100 
6     C5       3.7034   -5.3004   -0.0324 C.3     1  LIG   0.2700   0.6830 
7     C6       2.4799   -5.7652    0.8128 C.3     1  LIG  -0.0914   0.0000 
8     C7       1.1586   -5.0875    0.4742 C.3     1  LIG  -0.0863   0.0000 
9     C8       0.8138   -5.2989   -0.9917 C.3     1  LIG  -0.0877   0.0000 
10    C9       1.9135   -4.7822   -1.9054 C.3     1  LIG  -0.0886   0.0000 
11    C10      3.3064   -5.3168   -1.5444 C.3     1  LIG  -0.0957   0.0000 
12    C11      4.3005   -3.7140    1.9352 C.3     1  LIG   0.1098   0.5030 
13    C12      5.1652   -2.5102    2.2774 C.3     1  LIG  -0.1062   0.0000 
14    C13      4.6130   -1.2399    1.6486 C.3     1  LIG  -0.0973   0.0000 
15    C14      4.4558   -1.4096    0.1454 C.3     1  LIG  -0.1073   0.0000 
16    C15      3.6214   -2.6350   -0.2196 C.3     1  LIG   0.1063   0.5030 
17    H1       6.5195   -8.9953    1.3237 H       1  LIG   0.1825   0.1500 
18    H2       4.1527   -7.8684    1.4702 H       1  LIG   0.1668   0.1500 
19    H3       8.1585   -7.5977   -0.1843 H       1  LIG   0.1990   0.1500 
20    H4       2.3179   -6.8382    0.6341 H       1  LIG   0.0930   0.0000 
21    H5       2.6684   -5.6905    1.8890 H       1  LIG   0.0605   0.0000 
22    H6       0.3638   -5.5213    1.0929 H       1  LIG   0.0766   0.0000 
23    H7       1.1886   -4.0226    0.7170 H       1  LIG   0.0336   0.0000 
24    H8       0.6561   -6.3680   -1.1812 H       1  LIG   0.0630   0.0000 
25    H9      -0.1302   -4.7946   -1.2274 H       1  LIG   0.0707   0.0000 
26    H10      1.6834   -5.0676   -2.9394 H       1  LIG   0.0766   0.0000 
27    H11      1.8927   -3.6900   -1.8959 H       1  LIG   0.0385   0.0000 
28    H12      4.0583   -4.8027   -2.1561 H       1  LIG   0.0561   0.0000 
29    H13      3.3267   -6.3623   -1.8879 H       1  LIG   0.0962   0.0000 
30    H14      3.2835   -3.5885    2.3208 H       1  LIG   0.0995   0.0000 
31    H15      4.7489   -4.6226    2.3469 H       1  LIG   0.1029   0.0000 
32    H16      5.2121   -2.3903    3.3656 H       1  LIG   0.0968   0.0000 
33    H17      6.1920   -2.6794    1.9302 H       1  LIG   0.0672   0.0000 
34    H18      3.6406   -0.9992    2.0954 H       1  LIG   0.0648   0.0000 
35    H19      5.2812   -0.3979    1.8608 H       1  LIG   0.0876   0.0000 
36    H20      3.9901   -0.5128   -0.2789 H       1  LIG   0.0964   0.0000 
37    H21      5.4487   -1.4960   -0.3145 H       1  LIG   0.0659   0.0000 
38    H22      3.6755   -2.7551   -1.3020 H       1  LIG   0.0985   0.0000 
39    H23      2.5878   -2.5262    0.1132 H       1  LIG   0.1046   0.0000 
40    N1       4.2050   -3.8730    0.4224 N.4     1  LIG  -0.6861  -0.9590 
41    H24      5.1813   -3.8692    0.0963 H       1  LIG   0.4344   0.4500 
@<TRIPOS>BOND
1     1     5     2
2     1     2     1
3     1     17    1
4     2     3     2
5     2     18    1
6     3     4     1
7     3     6     1
8     4     5     1
9     5     19    1
10    6     11    1
11    6     7     1
12    6     40    1
13    7     8     1
14    7     20    1
15    7     21    1
16    8     9     1
17    8     22    1
18    8     23    1
19    9     10    1
20    9     24    1
21    9     25    1
22    10    11    1
23    10    26    1
24    10    27    1
25    11    28    1
26    11    29    1
27    12    13    1
28    12    30    1
29    12    31    1
30    12    40    1
31    13    14    1
32    13    32    1
33    13    33    1
34    14    15    1
35    14    34    1
36    14    35    1
37    15    16    1
38    15    36    1
39    15    37    1
40    16    38    1
41    16    39    1
42    16    40    1
43    40    41    1
@<TRIPOS>SUBSTRUCTURE
1   LIG    1    
 
########## Number      : 552
########## Name        : ZINC00002132
########## Description : AM1BCC_CHARGES =  -0.0000 ORIGINAL_CHARGES =   0.0000

@<TRIPOS>MOLECULE
ZINC00002132
29    29    1     0     0    
SMALL
USER_CHARGES
****
****
@<TRIPOS>ATOM
1     C1       5.4075   -7.8459    1.9058 C.3     1  LIG  -0.0929   0.0000 
2     C2       4.8623   -6.5972    1.2221 C.3     1  LIG  -0.0808   0.0000 
3     C3       3.6225   -6.8456    0.3361 C.3     1  LIG  -0.0744   0.0000 
4     C4       3.8972   -7.9626   -0.6932 C.3     1  LIG  -0.0969   0.0000 
5     C5       3.2060   -5.5413   -0.4147 C.3     1  LIG   0.1158   0.4383 
6     C6       2.8508   -4.3837    0.4792 C.2     1  LIG   0.1640  -0.0615 
7     C7       1.5602   -4.0220    0.3777 C.2     1  LIG  -0.3755   0.0288 
8     C8       0.9834   -4.8931   -0.6837 C.2     1  LIG   0.7083   0.6156 
9     O1      -0.1691   -4.8539   -1.0801 O.2     1  LIG  -0.5738  -0.5700 
10    N1       1.9916   -5.7267   -1.1363 N.am    1  LIG  -0.5570  -0.7301 
11    C9       0.8186   -2.9394    1.0643 C.2     1  LIG   0.5944   0.4946 
12    O2      -0.1431   -2.4036    0.5144 O.2     1  LIG  -0.4931  -0.5700 
13    C10      1.2484   -2.5106    2.4423 C.3     1  LIG  -0.2127   0.0610 
14    O3       3.8497   -3.7557    1.1682 O.3     1  LIG  -0.4625  -0.5267 
15    H1       1.8618   -6.3781   -1.9031 H       1  LIG   0.3156   0.3700 
16    H2       3.5197   -2.9129    1.5168 H       1  LIG   0.4397   0.4500 
17    H3       6.1800   -7.5676    2.6304 H       1  LIG   0.0386   0.0000 
18    H4       4.6163   -8.3785    2.4425 H       1  LIG   0.0356   0.0000 
19    H5       5.8683   -8.5302    1.1875 H       1  LIG   0.0358   0.0000 
20    H6       4.6040   -5.8965    2.0223 H       1  LIG   0.0537   0.0000 
21    H7       5.6649   -6.1378    0.6325 H       1  LIG   0.0472   0.0000 
22    H8       2.7956   -7.2177    0.9668 H       1  LIG   0.0600   0.0000 
23    H9       3.0301   -8.1428   -1.3357 H       1  LIG   0.0347   0.0000 
24    H10      4.7485   -7.7073   -1.3332 H       1  LIG   0.0433   0.0000 
25    H11      4.1137   -8.9146   -0.1988 H       1  LIG   0.0487   0.0000 
26    H12      4.0395   -5.2461   -1.0686 H       1  LIG   0.0941   0.0000 
27    H13      0.3606   -2.2426    3.0233 H       1  LIG   0.0824   0.0000 
28    H14      1.7486   -3.3255    2.9721 H       1  LIG   0.0497   0.0000 
29    H15      1.9089   -1.6433    2.3700 H       1  LIG   0.0580   0.0000 
@<TRIPOS>BOND
1     1     2     1
2     1     17    1
3     1     18    1
4     1     19    1
5     2     3     1
6     2     20    1
7     2     21    1
8     3     4     1
9     3     5     1
10    3     22    1
11    4     23    1
12    4     24    1
13    4     25    1
14    5     10    1
15    5     6     1
16    5     26    1
17    6     7     2
18    6     14    1
19    7     8     1
20    7     11    1
21    8     9     2
22    8     10    am
23    10    15    1
24    11    12    2
25    11    13    1
26    13    27    1
27    13    28    1
28    13    29    1
29    14    16    1
@<TRIPOS>SUBSTRUCTURE
1   LIG    1    
 
########## Number      : 553
########## Name        : ZINC00002134
########## Description : AM1BCC_CHARGES =  -0.9998 ORIGINAL_CHARGES =  -1.0000

@<TRIPOS>MOLECULE
ZINC00002134
43    44    1     0     0    
SMALL
USER_CHARGES
****
****
@<TRIPOS>ATOM
1     C1       5.8257   -9.9727    0.0527 C.3     1  LIG  -0.0863   0.0000 
2     C2       6.7345   -9.3902    1.1593 C.3     1  LIG   0.0025   0.1435 
3     C3       7.0887  -10.5512    2.1141 C.3     1  LIG  -0.0831   0.0000 
4     C4       8.0219   -8.8863    0.4713 C.3     1  LIG  -0.0831   0.0000 
5     C5       6.0895   -8.2429    1.9556 C.ar    1  LIG  -0.1313  -0.1435 
6     C6       4.7999   -7.7740    1.6982 C.ar    1  LIG  -0.0541  -0.1500 
7     C7       4.2583   -6.7264    2.4522 C.ar    1  LIG  -0.2285   0.0862 
8     C8       2.8921   -6.2611    2.1476 C.2     1  LIG   0.5896   0.4694 
9     O1       2.2124   -6.7572    1.2586 O.2     1  LIG  -0.6115  -0.5700 
10    C9       2.3734   -5.1583    2.9708 C.2     1  LIG  -0.3600  -0.1356 
11    C10      3.1538   -4.6495    3.9298 C.2     1  LIG   0.0748  -0.1733 
12    O2       4.4338   -5.0899    4.2104 O.3     1  LIG  -0.1821  -0.1592 
13    C11      4.9846   -6.1156    3.4839 C.ar    1  LIG   0.1562   0.0825 
14    C12      6.2899   -6.5496    3.7856 C.ar    1  LIG  -0.0969  -0.1435 
15    C13      6.8035   -7.6144    2.9982 C.ar    1  LIG  -0.0952  -0.1500 
16    C14      7.2066   -5.9713    4.8925 C.3     1  LIG   0.0040   0.1435 
17    C15      6.6274   -4.8143    5.7359 C.3     1  LIG  -0.0842   0.0000 
18    C16      7.5706   -7.0942    5.8941 C.3     1  LIG  -0.0835   0.0000 
19    C17      8.5052   -5.4270    4.2490 C.3     1  LIG  -0.0835   0.0000 
20    C18      2.6435   -3.4885    4.8166 C.2     1  LIG   0.9276   1.0500 
21    O3       1.4733   -3.0726    4.5777 O.co2   1  LIG  -0.7866  -0.9000 
22    H1       5.5577   -9.2131   -0.6909 H       1  LIG   0.0413   0.0000 
23    H2       6.3291  -10.7853   -0.4849 H       1  LIG   0.0219   0.0000 
24    H3       4.8995  -10.3872    0.4676 H       1  LIG   0.0414   0.0000 
25    H4       7.8239  -10.2573    2.8711 H       1  LIG   0.0323   0.0000 
26    H5       6.1985  -10.9121    2.6429 H       1  LIG   0.0405   0.0000 
27    H6       7.5166  -11.3980    1.5648 H       1  LIG   0.0216   0.0000 
28    H7       8.7772   -8.5567    1.1931 H       1  LIG   0.0324   0.0000 
29    H8       8.4817   -9.6764   -0.1340 H       1  LIG   0.0216   0.0000 
30    H9       7.8090   -8.0394   -0.1917 H       1  LIG   0.0404   0.0000 
31    H10      4.1973   -8.2143    0.9096 H       1  LIG   0.1520   0.1500 
32    H11      1.3717   -4.8037    2.7611 H       1  LIG   0.1798   0.1500 
33    H12      7.8101   -7.9727    3.2069 H       1  LIG   0.1234   0.1500 
34    H13      7.3497   -4.4757    6.4894 H       1  LIG   0.0149   0.0000 
35    H14      6.3909   -3.9406    5.1185 H       1  LIG   0.0712   0.0000 
36    H15      5.7291   -5.1210    6.2832 H       1  LIG   0.0701   0.0000 
37    H16      8.1948   -6.7105    6.7099 H       1  LIG   0.0259   0.0000 
38    H17      6.6682   -7.5284    6.3408 H       1  LIG   0.0422   0.0000 
39    H18      8.1317   -7.9101    5.4265 H       1  LIG   0.0184   0.0000 
40    H19      9.1644   -4.9810    5.0032 H       1  LIG   0.0258   0.0000 
41    H20      9.0859   -6.2080    3.7469 H       1  LIG   0.0184   0.0000 
42    H21      8.2795   -4.6542    3.5046 H       1  LIG   0.0423   0.0000 
43    O4       3.4636   -3.0813    5.6908 O.co2   1  LIG  -0.7824  -0.9000 
@<TRIPOS>BOND
1     1     2     1
2     1     22    1
3     1     23    1
4     1     24    1
5     2     3     1
6     2     4     1
7     2     5     1
8     3     25    1
9     3     26    1
10    3     27    1
11    4     28    1
12    4     29    1
13    4     30    1
14    5     15    ar
15    5     6     ar
16    6     7     ar
17    6     31    1
18    7     13    ar
19    7     8     1
20    8     9     2
21    8     10    1
22    10    11    2
23    10    32    1
24    11    12    1
25    11    20    1
26    12    13    1
27    13    14    ar
28    14    15    ar
29    14    16    1
30    15    33    1
31    16    17    1
32    16    18    1
33    16    19    1
34    17    34    1
35    17    35    1
36    17    36    1
37    18    37    1
38    18    38    1
39    18    39    1
40    19    40    1
41    19    41    1
42    19    42    1
43    20    21    2
44    20    43    1
@<TRIPOS>SUBSTRUCTURE
1   LIG    1    
 
########## Number      : 554
########## Name        : ZINC00002137
########## Description : AM1BCC_CHARGES =  -0.0002 ORIGINAL_CHARGES =   0.0000

@<TRIPOS>MOLECULE
ZINC00002137
32    32    1     0     0    
SMALL
USER_CHARGES
****
****
@<TRIPOS>ATOM
1     C1       3.8072  -10.2480    1.7042 C.3     1  LIG  -0.1233   0.0000 
2     C2       3.6201   -8.8754    1.0558 C.3     1  LIG   0.1481   0.2800 
3     C3       2.1403   -8.4762    1.0427 C.3     1  LIG  -0.1008   0.0000 
4     C4       1.9031   -7.1436    0.3270 C.3     1  LIG  -0.0743   0.0000 
5     C5       2.4528   -7.1450   -1.1165 C.3     1  LIG  -0.0864   0.0000 
6     C6       3.9449   -7.5440   -1.0909 C.3     1  LIG  -0.0716   0.0000 
7     C7       4.1841   -8.8729   -0.3686 C.3     1  LIG  -0.0625   0.0000 
8     C8       2.2108   -5.7924   -1.8648 C.3     1  LIG   0.1540   0.2800 
9     C9       2.6780   -5.8657   -3.3258 C.3     1  LIG  -0.0855   0.0000 
10    C10      0.7326   -5.3762   -1.8536 C.3     1  LIG  -0.1213   0.0000 
11    O1       2.9670   -4.7456   -1.2498 O.3     1  LIG  -0.5960  -0.6800 
12    O2       4.3565   -7.9229    1.8276 O.3     1  LIG  -0.5932  -0.6800 
13    H1       2.6062   -4.5885   -0.3615 H       1  LIG   0.3997   0.4000 
14    H2       3.9917   -7.9207    2.7290 H       1  LIG   0.3954   0.4000 
15    H3       3.4368  -10.2465    2.7357 H       1  LIG   0.0332   0.0000 
16    H4       3.2815  -11.0322    1.1500 H       1  LIG   0.0432   0.0000 
17    H5       4.8696  -10.5119    1.7566 H       1  LIG   0.0506   0.0000 
18    H6       1.5455   -9.2563    0.5507 H       1  LIG   0.0490   0.0000 
19    H7       1.7661   -8.3834    2.0700 H       1  LIG   0.0385   0.0000 
20    H8       0.8236   -6.9591    0.3233 H       1  LIG   0.0408   0.0000 
21    H9       2.3626   -6.3361    0.9090 H       1  LIG   0.0458   0.0000 
22    H10      1.9107   -7.9268   -1.6681 H       1  LIG   0.0500   0.0000 
23    H11      4.3298   -7.6496   -2.1106 H       1  LIG   0.0432   0.0000 
24    H12      4.5372   -6.7569   -0.6085 H       1  LIG   0.0697   0.0000 
25    H13      5.2654   -9.0578   -0.3443 H       1  LIG   0.0568   0.0000 
26    H14      3.7293   -9.6823   -0.9540 H       1  LIG   0.0402   0.0000 
27    H15      2.4368   -4.9378   -3.8583 H       1  LIG   0.0444   0.0000 
28    H16      3.7656   -5.9667   -3.4000 H       1  LIG   0.0524   0.0000 
29    H17      2.2061   -6.6977   -3.8583 H       1  LIG   0.0366   0.0000 
30    H18      0.5804   -4.4667   -2.4470 H       1  LIG   0.0473   0.0000 
31    H19      0.0909   -6.1636   -2.2615 H       1  LIG   0.0410   0.0000 
32    H20      0.3890   -5.1246   -0.8450 H       1  LIG   0.0348   0.0000 
@<TRIPOS>BOND
1     1     2     1
2     1     15    1
3     1     16    1
4     1     17    1
5     2     7     1
6     2     3     1
7     2     12    1
8     3     4     1
9     3     18    1
10    3     19    1
11    4     5     1
12    4     20    1
13    4     21    1
14    5     6     1
15    5     8     1
16    5     22    1
17    6     7     1
18    6     23    1
19    6     24    1
20    7     25    1
21    7     26    1
22    8     9     1
23    8     10    1
24    8     11    1
25    9     27    1
26    9     28    1
27    9     29    1
28    10    30    1
29    10    31    1
30    10    32    1
31    11    13    1
32    12    14    1
@<TRIPOS>SUBSTRUCTURE
1   LIG    1    
 
########## Number      : 555
########## Name        : ZINC00002140
########## Description : AM1BCC_CHARGES =  -0.0006 ORIGINAL_CHARGES =   0.0000

@<TRIPOS>MOLECULE
ZINC00002140
46    49    1     0     0    
SMALL
USER_CHARGES
****
****
@<TRIPOS>ATOM
1     C1       5.5482   -5.8527    0.3262 C.3     1  LIG  -0.1132   0.0000 
2     C2       4.4670   -6.9021    0.6659 C.3     1  LIG   0.1715   0.2800 
3     C3       5.0991   -8.2229    1.1844 C.3     1  LIG  -0.0785   0.0000 
4     C4       5.1872   -8.3738    2.7095 C.3     1  LIG  -0.0735   0.0000 
5     C5       5.3518   -6.9952    3.3598 C.3     1  LIG  -0.0517   0.0000 
6     C6       4.0310   -6.2133    3.1531 C.3     1  LIG  -0.0509   0.0000 
7     C7       3.4349   -6.4168    1.7170 C.3     1  LIG  -0.0827   0.0000 
8     C8       2.6855   -5.2161    1.1336 C.3     1  LIG  -0.0783   0.0000 
9     C9       2.0048   -5.6073   -0.1654 C.3     1  LIG  -0.1663   0.0610 
10    C10      2.8397   -6.4215   -1.1186 C.2     1  LIG   0.7163   0.6590 
11    O1       2.5815   -6.4587   -2.3194 O.2     1  LIG  -0.5843  -0.5700 
12    O2       3.7950   -7.2150   -0.5799 O.3     1  LIG  -0.4245  -0.4300 
13    C11      4.2779   -4.7405    3.5418 C.3     1  LIG  -0.0729   0.0000 
14    C12      4.6931   -4.6519    5.0180 C.3     1  LIG  -0.0537   0.1382 
15    C13      5.8549   -5.5674    5.3374 C.2     1  LIG  -0.0440  -0.2764 
16    C14      6.9545   -5.0596    5.9180 C.2     1  LIG  -0.2475  -0.1356 
17    C15      8.1550   -5.8843    6.1584 C.2     1  LIG   0.5605   0.5412 
18    O3       9.1395   -5.4232    6.7250 O.2     1  LIG  -0.5289  -0.5700 
19    C16      8.1341   -7.2762    5.6764 C.2     1  LIG  -0.2394  -0.1356 
20    C17      7.0377   -7.7793    5.0995 C.2     1  LIG  -0.1042  -0.2882 
21    C18      5.7270   -7.0306    4.8872 C.3     1  LIG   0.0080   0.2764 
22    C19      4.6858   -7.7611    5.7667 C.3     1  LIG  -0.0822   0.0000 
23    H1       6.3008   -6.2940   -0.3387 H       1  LIG   0.0576   0.0000 
24    H2       5.1282   -5.0157   -0.2423 H       1  LIG   0.0443   0.0000 
25    H3       6.0705   -5.4326    1.1831 H       1  LIG   0.0494   0.0000 
26    H4       4.5378   -9.0822    0.7930 H       1  LIG   0.0738   0.0000 
27    H5       6.1050   -8.3331    0.7582 H       1  LIG   0.0560   0.0000 
28    H6       4.2772   -8.8631    3.0782 H       1  LIG   0.0464   0.0000 
29    H7       6.0177   -9.0490    2.9324 H       1  LIG   0.0495   0.0000 
30    H8       6.1942   -6.5372    2.8168 H       1  LIG   0.0634   0.0000 
31    H9       3.2548   -6.5435    3.8669 H       1  LIG   0.0529   0.0000 
32    H10      2.6444   -7.1870    1.8388 H       1  LIG   0.0614   0.0000 
33    H11      1.9172   -4.8696    1.8352 H       1  LIG   0.0548   0.0000 
34    H12      3.3577   -4.3693    0.9587 H       1  LIG   0.0561   0.0000 
35    H13      1.1098   -6.2013    0.0553 H       1  LIG   0.0820   0.0000 
36    H14      1.6816   -4.6969   -0.6827 H       1  LIG   0.0852   0.0000 
37    H15      5.0525   -4.2927    2.9093 H       1  LIG   0.0511   0.0000 
38    H16      3.3699   -4.1411    3.4199 H       1  LIG   0.0479   0.0000 
39    H17      4.9321   -3.6067    5.2498 H       1  LIG   0.0573   0.0000 
40    H18      3.8423   -4.9189    5.6566 H       1  LIG   0.0573   0.0000 
41    H19      7.0200   -4.0173    6.2118 H       1  LIG   0.1506   0.1500 
42    H20      9.0261   -7.8748    5.8194 H       1  LIG   0.1524   0.1500 
43    H21      7.0775   -8.8236    4.7991 H       1  LIG   0.1333   0.1500 
44    H22      5.0125   -7.7951    6.8146 H       1  LIG   0.0494   0.0000 
45    H23      3.7051   -7.2779    5.7699 H       1  LIG   0.0436   0.0000 
46    H24      4.5406   -8.7982    5.4434 H       1  LIG   0.0441   0.0000 
@<TRIPOS>BOND
1     1     2     1
2     1     23    1
3     1     24    1
4     1     25    1
5     2     7     1
6     2     12    1
7     2     3     1
8     3     4     1
9     3     26    1
10    3     27    1
11    4     5     1
12    4     28    1
13    4     29    1
14    5     21    1
15    5     6     1
16    5     30    1
17    6     7     1
18    6     13    1
19    6     31    1
20    7     8     1
21    7     32    1
22    8     9     1
23    8     33    1
24    8     34    1
25    9     10    1
26    9     35    1
27    9     36    1
28    10    11    2
29    10    12    1
30    13    14    1
31    13    37    1
32    13    38    1
33    14    15    1
34    14    39    1
35    14    40    1
36    15    21    1
37    15    16    2
38    16    17    1
39    16    41    1
40    17    18    2
41    17    19    1
42    19    20    2
43    19    42    1
44    20    21    1
45    20    43    1
46    21    22    1
47    22    44    1
48    22    45    1
49    22    46    1
@<TRIPOS>SUBSTRUCTURE
1   LIG    1    
 
########## Number      : 556
########## Name        : ZINC00002143
########## Description : AM1BCC_CHARGES =  -0.0002 ORIGINAL_CHARGES =   0.0000

@<TRIPOS>MOLECULE
ZINC00002143
57    60    1     0     0    
SMALL
USER_CHARGES
****
****
@<TRIPOS>ATOM
1     C1      -1.1087   -7.7751    2.6494 C.3     1  LIG  -0.0897   0.0000 
2     C2      -0.1335   -6.9359    1.8368 C.3     1  LIG  -0.1635   0.0610 
3     C3      -0.7962   -5.7123    1.2436 C.2     1  LIG   0.6238   0.6590 
4     O1      -2.0025   -5.4999    1.3359 O.2     1  LIG  -0.4916  -0.5700 
5     O2       0.0065   -4.8469    0.5722 O.3     1  LIG  -0.4188  -0.4300 
6     C4       1.4456   -4.9738    0.4671 C.3     1  LIG   0.1426   0.2800 
7     C5       2.0939   -4.2999    1.7123 C.3     1  LIG  -0.1070   0.0000 
8     C6       2.5231   -2.8721    1.2869 C.3     1  LIG  -0.0691   0.0000 
9     C7       1.9004   -2.6991   -0.0981 C.3     1  LIG  -0.0660   0.0000 
10    C8       1.9445   -4.1063   -0.6914 C.3     1  LIG  -0.0455   0.0000 
11    C9       1.0506   -4.1092   -1.9454 C.3     1  LIG  -0.0643   0.0000 
12    C10      1.4935   -3.0428   -2.9667 C.3     1  LIG  -0.0745   0.0000 
13    C11      1.6286   -1.6230   -2.3372 C.3     1  LIG  -0.0493   0.0000 
14    C12      2.4941   -1.6517   -1.0470 C.3     1  LIG  -0.0480   0.0000 
15    C13      2.4950   -0.2580   -0.3928 C.3     1  LIG  -0.0726   0.0000 
16    C14      3.0609    0.7893   -1.3428 C.3     1  LIG  -0.0535   0.1382 
17    C15      2.3471    0.7914   -2.6734 C.2     1  LIG  -0.0280  -0.2764 
18    C16      1.9143    1.9560   -3.1856 C.2     1  LIG  -0.2640  -0.1356 
19    C17      1.3212    2.0324   -4.5400 C.2     1  LIG   0.5698   0.4946 
20    O3       0.8974    3.1063   -4.9619 O.2     1  LIG  -0.5359  -0.5700 
21    C18      1.3397    0.7926   -5.3936 C.3     1  LIG  -0.1822   0.0610 
22    C19      1.1531   -0.4465   -4.5316 C.3     1  LIG  -0.0705   0.0000 
23    C20      2.1891   -0.5639   -3.3726 C.3     1  LIG  -0.0158   0.1382 
24    C21      3.5553   -0.9718   -3.9716 C.3     1  LIG  -0.0854   0.0000 
25    C22      3.3681   -4.5753   -1.0946 C.3     1  LIG  -0.0897   0.0000 
26    H1      -0.6002   -8.6479    3.0705 H       1  LIG   0.0404   0.0000 
27    H2      -1.5336   -7.1947    3.4752 H       1  LIG   0.0507   0.0000 
28    H3      -1.9369   -8.1300    2.0270 H       1  LIG   0.0571   0.0000 
29    H4       0.6803   -6.6261    2.4980 H       1  LIG   0.0681   0.0000 
30    H5       0.2599   -7.5523    1.0226 H       1  LIG   0.0714   0.0000 
31    H6       1.7331   -6.0300    0.3953 H       1  LIG   0.0495   0.0000 
32    H7       1.4004   -4.2500    2.5582 H       1  LIG   0.0584   0.0000 
33    H8       2.9807   -4.8586    2.0316 H       1  LIG   0.0466   0.0000 
34    H9       2.1624   -2.1223    1.9984 H       1  LIG   0.0504   0.0000 
35    H10      3.6158   -2.7990    1.2503 H       1  LIG   0.0428   0.0000 
36    H11      0.8680   -2.3539    0.1018 H       1  LIG   0.0689   0.0000 
37    H12      1.0576   -5.0979   -2.4202 H       1  LIG   0.0419   0.0000 
38    H13      0.0068   -3.9005   -1.6800 H       1  LIG   0.0702   0.0000 
39    H14      2.4346   -3.3593   -3.4245 H       1  LIG   0.0402   0.0000 
40    H15      0.7502   -3.0266   -3.7716 H       1  LIG   0.0445   0.0000 
41    H16      0.5912   -1.3533   -2.0543 H       1  LIG   0.0570   0.0000 
42    H17      3.5471   -1.8723   -1.2720 H       1  LIG   0.0537   0.0000 
43    H18      1.4758    0.0229   -0.0972 H       1  LIG   0.0512   0.0000 
44    H19      3.1008   -0.2673    0.5207 H       1  LIG   0.0454   0.0000 
45    H20      3.0043    1.7713   -0.8572 H       1  LIG   0.0544   0.0000 
46    H21      4.1265    0.5917   -1.5131 H       1  LIG   0.0559   0.0000 
47    H22      2.0317    2.8964   -2.6577 H       1  LIG   0.1476   0.1500 
48    H23      0.5175    0.8550   -6.1150 H       1  LIG   0.0736   0.0000 
49    H24      2.2808    0.7630   -5.9515 H       1  LIG   0.0695   0.0000 
50    H25      0.1375   -0.4161   -4.1123 H       1  LIG   0.0533   0.0000 
51    H26      1.1945   -1.3287   -5.1815 H       1  LIG   0.0498   0.0000 
52    H27      3.9827   -0.1627   -4.5759 H       1  LIG   0.0399   0.0000 
53    H28      4.2956   -1.2113   -3.2029 H       1  LIG   0.0395   0.0000 
54    H29      3.4682   -1.8425   -4.6295 H       1  LIG   0.0407   0.0000 
55    H30      3.8333   -3.9512   -1.8611 H       1  LIG   0.0455   0.0000 
56    H31      4.0547   -4.5941   -0.2420 H       1  LIG   0.0354   0.0000 
57    H32      3.3288   -5.5962   -1.4931 H       1  LIG   0.0350   0.0000 
@<TRIPOS>BOND
1     1     2     1
2     1     26    1
3     1     27    1
4     1     28    1
5     2     3     1
6     2     29    1
7     2     30    1
8     3     4     2
9     3     5     1
10    5     6     1
11    6     10    1
12    6     7     1
13    6     31    1
14    7     8     1
15    7     32    1
16    7     33    1
17    8     9     1
18    8     34    1
19    8     35    1
20    9     14    1
21    9     10    1
22    9     36    1
23    10    11    1
24    10    25    1
25    11    12    1
26    11    37    1
27    11    38    1
28    12    13    1
29    12    39    1
30    12    40    1
31    13    23    1
32    13    14    1
33    13    41    1
34    14    15    1
35    14    42    1
36    15    16    1
37    15    43    1
38    15    44    1
39    16    17    1
40    16    45    1
41    16    46    1
42    17    23    1
43    17    18    2
44    18    19    1
45    18    47    1
46    19    20    2
47    19    21    1
48    21    22    1
49    21    48    1
50    21    49    1
51    22    23    1
52    22    50    1
53    22    51    1
54    23    24    1
55    24    52    1
56    24    53    1
57    24    54    1
58    25    55    1
59    25    56    1
60    25    57    1
@<TRIPOS>SUBSTRUCTURE
1   LIG    1    
 
########## Number      : 557
########## Name        : ZINC00002148
########## Description : AM1BCC_CHARGES =   1.0000 ORIGINAL_CHARGES =   1.0000

@<TRIPOS>MOLECULE
ZINC00002148
38    39    1     0     0    
SMALL
USER_CHARGES
****
****
@<TRIPOS>ATOM
1     C1       2.5375   -5.4919    5.2019 C.3     1  LIG   0.0894   0.5030 
2     N1       3.5348   -5.0132    4.1182 N.4     1  LIG  -0.6043  -1.0120 
3     C2       4.8951   -5.5808    4.5081 C.3     1  LIG   0.0813   0.5030 
4     C3       3.0202   -5.5798    2.7795 C.3     1  LIG   0.0718   0.5030 
5     C4       4.0172   -5.5672    1.6211 C.3     1  LIG   0.1216   0.2800 
6     O1       3.5372   -6.4038    0.5592 O.3     1  LIG  -0.3165  -0.3625 
7     C5       2.7243   -5.8696   -0.4008 C.ar    1  LIG   0.0892   0.0825 
8     C6       2.1843   -4.5835   -0.4034 C.ar    1  LIG  -0.2079  -0.1500 
9     C7       1.3588   -4.1686   -1.4528 C.ar    1  LIG  -0.0939  -0.1500 
10    C8       1.0659   -5.0362   -2.5028 C.ar    1  LIG  -0.1373  -0.1500 
11    C9       1.5967   -6.3229   -2.5045 C.ar    1  LIG  -0.0886  -0.1500 
12    C10      2.4207   -6.7370   -1.4569 C.ar    1  LIG  -0.1345  -0.1500 
13    C11      3.5161   -3.4598    4.1836 C.3     1  LIG   0.2256   0.6830 
14    C12      4.3630   -2.6643    3.2386 C.2     1  LIG  -0.2548  -0.1400 
15    C13      3.9496   -1.9674    2.1181 C.2     1  LIG  -0.0952  -0.1500 
16    C14      5.0172   -1.2804    1.4732 C.2     1  LIG  -0.1549  -0.1500 
17    C15      6.2083   -1.4388    2.1430 C.2     1  LIG  -0.1193  -0.1100 
18    S1       6.0289   -2.3939    3.5485 S.3     1  LIG   0.0857  -0.0800 
19    H1       1.5409   -5.1260    4.9372 H       1  LIG   0.1004   0.0000 
20    H2       2.5509   -6.5859    5.2276 H       1  LIG   0.1021   0.0000 
21    H3       2.8536   -5.0868    6.1679 H       1  LIG   0.0975   0.0000 
22    H4       5.6486   -5.2529    3.7922 H       1  LIG   0.1041   0.0000 
23    H5       5.1481   -5.2183    5.5091 H       1  LIG   0.0950   0.0000 
24    H6       4.8255   -6.6728    4.5052 H       1  LIG   0.1032   0.0000 
25    H7       2.7260   -6.6202    2.9701 H       1  LIG   0.1097   0.0000 
26    H8       2.1036   -5.0340    2.5292 H       1  LIG   0.1007   0.0000 
27    H9       4.2763   -4.5716    1.2585 H       1  LIG   0.0815   0.0000 
28    H10      4.9586   -6.0328    1.9249 H       1  LIG   0.0812   0.0000 
29    H11      2.3757   -3.8780    0.3954 H       1  LIG   0.1155   0.1500 
30    H12      0.9420   -3.1651   -1.4485 H       1  LIG   0.1414   0.1500 
31    H13      0.4241   -4.7102   -3.3161 H       1  LIG   0.1510   0.1500 
32    H14      1.3703   -7.0043   -3.3195 H       1  LIG   0.1526   0.1500 
33    H15      2.8289   -7.7449   -1.4699 H       1  LIG   0.1590   0.1500 
34    H16      2.4657   -3.1723    4.0422 H       1  LIG   0.1028   0.0000 
35    H17      3.7774   -3.1955    5.2170 H       1  LIG   0.0968   0.0000 
36    H18      2.9244   -1.9541    1.7700 H       1  LIG   0.1632   0.1500 
37    H19      4.9140   -0.6910    0.5711 H       1  LIG   0.1839   0.1500 
38    H20      7.1720   -1.0238    1.8828 H       1  LIG   0.2010   0.1500 
@<TRIPOS>BOND
1     1     2     1
2     1     19    1
3     1     20    1
4     1     21    1
5     2     3     1
6     2     4     1
7     2     13    1
8     3     22    1
9     3     23    1
10    3     24    1
11    4     5     1
12    4     25    1
13    4     26    1
14    5     6     1
15    5     27    1
16    5     28    1
17    6     7     1
18    7     12    ar
19    7     8     ar
20    8     9     ar
21    8     29    1
22    9     10    ar
23    9     30    1
24    10    11    ar
25    10    31    1
26    11    12    ar
27    11    32    1
28    12    33    1
29    13    14    1
30    13    34    1
31    13    35    1
32    14    18    1
33    14    15    2
34    15    16    1
35    15    36    1
36    16    17    2
37    16    37    1
38    17    18    1
39    17    38    1
@<TRIPOS>SUBSTRUCTURE
1   LIG    1    
 
########## Number      : 558
########## Name        : ZINC00002151
########## Description : AM1BCC_CHARGES =  -0.0001 ORIGINAL_CHARGES =  -0.0000

@<TRIPOS>MOLECULE
ZINC00002151
21    22    1     0     0    
SMALL
USER_CHARGES
****
****
@<TRIPOS>ATOM
1     C1       0.7644   -2.1156   -6.0225 C.3     1  LIG   0.0215   0.2556 
2     N1       0.2746   -1.7636   -4.7141 N.pl3   1  LIG  -0.1489   0.0476 
3     C2       0.3472   -0.5235   -4.1360 C.2     1  LIG   0.4457   0.0365 
4     N2      -0.1866   -0.5100   -2.9314 N.2     1  LIG  -0.6845  -0.5653 
5     C3      -0.6153   -1.7937   -2.7373 C.2     1  LIG   0.4873   0.2902 
6     C4      -0.3444   -2.5913   -3.8211 C.2     1  LIG  -0.3539  -0.2366 
7     C5      -0.6863   -3.9771   -3.8828 C.2     1  LIG   0.7635   0.7150 
8     O1      -0.4619   -4.7222   -4.8311 O.2     1  LIG  -0.6252  -0.5700 
9     N3      -1.3215   -4.4001   -2.7116 N.am    1  LIG  -0.5813  -0.4900 
10    C6      -1.6307   -3.6404   -1.5647 C.2     1  LIG   0.8166   0.6900 
11    O2      -2.1993   -4.1698   -0.6065 O.2     1  LIG  -0.6390  -0.5700 
12    N4      -1.2519   -2.2833   -1.6028 N.am    1  LIG  -0.4181  -0.4231 
13    C7      -1.5207   -1.4042   -0.4750 C.3     1  LIG   0.0905   0.3001 
14    H1      -1.5955   -5.3767   -2.6811 H       1  LIG   0.3577   0.3700 
15    H2       1.2097   -1.2367   -6.4955 H       1  LIG   0.0577   0.0000 
16    H3       1.5197   -2.8976   -5.9117 H       1  LIG   0.0731   0.0000 
17    H4      -0.0758   -2.4723   -6.6235 H       1  LIG   0.0746   0.0000 
18    H5       0.7955    0.3264   -4.6331 H       1  LIG   0.0712   0.1500 
19    H6      -2.0244   -1.9371    0.3356 H       1  LIG   0.0839   0.0000 
20    H7      -0.5731   -1.0052   -0.1005 H       1  LIG   0.0534   0.0000 
21    H8      -2.1610   -0.5819   -0.8089 H       1  LIG   0.0541   0.0000 
@<TRIPOS>BOND
1     1     2     1
2     1     15    1
3     1     16    1
4     1     17    1
5     2     6     1
6     2     3     1
7     3     4     2
8     3     18    1
9     4     5     1
10    5     12    1
11    5     6     2
12    6     7     1
13    7     8     2
14    7     9     am
15    9     10    am
16    9     14    1
17    10    11    2
18    10    12    am
19    12    13    1
20    13    19    1
21    13    20    1
22    13    21    1
@<TRIPOS>SUBSTRUCTURE
1   LIG    1    
 
########## Number      : 559
########## Name        : ZINC00002154
########## Description : AM1BCC_CHARGES =  -0.0000 ORIGINAL_CHARGES =   0.0000

@<TRIPOS>MOLECULE
ZINC00002154
34    34    1     0     0    
SMALL
USER_CHARGES
****
****
@<TRIPOS>ATOM
1     C1       6.1734   -5.3638   -1.5062 C.3     1  LIG  -0.1049   0.0000 
2     C2       4.7114   -5.5855   -1.8784 C.3     1  LIG  -0.0712   0.0000 
3     C3       3.6590   -5.2287   -0.7812 C.3     1  LIG  -0.1704   0.1220 
4     C4       3.8423   -6.2208    0.3695 C.2     1  LIG   0.7008   0.5690 
5     O1       4.6190   -6.0266    1.3042 O.2     1  LIG  -0.5786  -0.5700 
6     N1       3.1203   -7.3947    0.2601 N.am    1  LIG  -0.5589  -0.4900 
7     C5       2.0806   -7.6302   -0.6067 C.2     1  LIG   0.5543   0.5000 
8     S1       1.2697   -9.0899   -0.6225 S.2     1  LIG  -0.4472  -0.3800 
9     N2       1.7099   -6.5927   -1.4279 N.am    1  LIG  -0.5586  -0.4900 
10    C6       2.3093   -5.3486   -1.4968 C.2     1  LIG   0.6968   0.5690 
11    O2       1.8205   -4.4320   -2.1576 O.2     1  LIG  -0.5784  -0.5700 
12    C7       3.8539   -3.7746   -0.2723 C.3     1  LIG  -0.0691   0.0000 
13    C8       2.8009   -3.3262    0.7590 C.3     1  LIG  -0.0843   0.0000 
14    C9       2.9242   -1.8392    1.1468 C.3     1  LIG  -0.0625   0.0000 
15    C10      1.7561   -1.4419    2.0532 C.3     1  LIG  -0.0919   0.0000 
16    C11      4.2477   -1.5231    1.8450 C.3     1  LIG  -0.0925   0.0000 
17    H1       3.3231   -8.1183    0.9429 H       1  LIG   0.3653   0.3700 
18    H2       0.8783   -6.7280   -1.9945 H       1  LIG   0.3655   0.3700 
19    H3       6.8171   -5.6968   -2.3274 H       1  LIG   0.0468   0.0000 
20    H4       6.3903   -4.3059   -1.3338 H       1  LIG   0.0434   0.0000 
21    H5       6.4570   -5.9312   -0.6158 H       1  LIG   0.0614   0.0000 
22    H6       4.5063   -5.0006   -2.7854 H       1  LIG   0.0720   0.0000 
23    H7       4.5956   -6.6380   -2.1713 H       1  LIG   0.0515   0.0000 
24    H8       4.8433   -3.6782    0.1880 H       1  LIG   0.0778   0.0000 
25    H9       3.8342   -3.0814   -1.1233 H       1  LIG   0.0741   0.0000 
26    H10      1.7965   -3.4930    0.3532 H       1  LIG   0.0436   0.0000 
27    H11      2.8779   -3.9443    1.6616 H       1  LIG   0.0486   0.0000 
28    H12      2.8625   -1.2316    0.2352 H       1  LIG   0.0505   0.0000 
29    H13      1.8051   -0.3779    2.3080 H       1  LIG   0.0371   0.0000 
30    H14      0.7976   -1.6199    1.5541 H       1  LIG   0.0355   0.0000 
31    H15      1.7644   -2.0150    2.9867 H       1  LIG   0.0353   0.0000 
32    H16      4.2721   -0.4793    2.1765 H       1  LIG   0.0365   0.0000 
33    H17      4.3950   -2.1599    2.7238 H       1  LIG   0.0395   0.0000 
34    H18      5.0982   -1.6669    1.1721 H       1  LIG   0.0322   0.0000 
@<TRIPOS>BOND
1     1     2     1
2     1     19    1
3     1     20    1
4     1     21    1
5     2     3     1
6     2     22    1
7     2     23    1
8     3     10    1
9     3     4     1
10    3     12    1
11    4     5     2
12    4     6     am
13    6     7     1
14    6     17    1
15    7     8     2
16    7     9     1
17    9     10    am
18    9     18    1
19    10    11    2
20    12    13    1
21    12    24    1
22    12    25    1
23    13    14    1
24    13    26    1
25    13    27    1
26    14    15    1
27    14    16    1
28    14    28    1
29    15    29    1
30    15    30    1
31    15    31    1
32    16    32    1
33    16    33    1
34    16    34    1
@<TRIPOS>SUBSTRUCTURE
1   LIG    1    
 
########## Number      : 560
########## Name        : ZINC00002155
########## Description : AM1BCC_CHARGES =  -0.0000 ORIGINAL_CHARGES =   0.0000

@<TRIPOS>MOLECULE
ZINC00002155
25    25    1     0     0    
SMALL
USER_CHARGES
****
****
@<TRIPOS>ATOM
1     C1       6.3530   -1.8362    2.7049 C.3     1  LIG  -0.1042   0.0000 
2     C2       6.5458   -3.3053    2.3446 C.3     1  LIG  -0.0718   0.0000 
3     C3       5.2474   -4.1680    2.2587 C.3     1  LIG  -0.1718   0.1220 
4     C4       4.6678   -4.2655    3.6720 C.2     1  LIG   0.7013   0.5690 
5     O1       3.8734   -3.4437    4.1287 O.2     1  LIG  -0.5775  -0.5700 
6     N1       5.1473   -5.3119    4.4377 N.am    1  LIG  -0.5601  -0.4900 
7     C5       5.8532   -6.3971    3.9772 C.2     1  LIG   0.5547   0.5000 
8     S1       6.3558   -7.6131    5.0053 S.2     1  LIG  -0.4459  -0.3800 
9     N2       6.0858   -6.4572    2.6242 N.am    1  LIG  -0.5602  -0.4900 
10    C6       5.7168   -5.5099    1.6868 C.2     1  LIG   0.6979   0.5690 
11    O2       5.8393   -5.7148    0.4792 O.2     1  LIG  -0.5770  -0.5700 
12    C7       4.2138   -3.5246    1.2990 C.3     1  LIG  -0.0672   0.0000 
13    C8       2.9530   -4.3614    1.0862 C.3     1  LIG  -0.1063   0.0000 
14    H1       4.8768   -5.3205    5.4163 H       1  LIG   0.3651   0.3700 
15    H2       6.5141   -7.3060    2.2675 H       1  LIG   0.3653   0.3700 
16    H3       7.3288   -1.3448    2.7827 H       1  LIG   0.0471   0.0000 
17    H4       5.7826   -1.3040    1.9386 H       1  LIG   0.0445   0.0000 
18    H5       5.8474   -1.7166    3.6668 H       1  LIG   0.0586   0.0000 
19    H6       7.0757   -3.3459    1.3831 H       1  LIG   0.0712   0.0000 
20    H7       7.2325   -3.7445    3.0810 H       1  LIG   0.0522   0.0000 
21    H8       3.8938   -2.5474    1.6798 H       1  LIG   0.0753   0.0000 
22    H9       4.6751   -3.3410    0.3202 H       1  LIG   0.0720   0.0000 
23    H10      2.2669   -3.8332    0.4158 H       1  LIG   0.0513   0.0000 
24    H11      3.1792   -5.3293    0.6301 H       1  LIG   0.0441   0.0000 
25    H12      2.4249   -4.5404    2.0273 H       1  LIG   0.0414   0.0000 
@<TRIPOS>BOND
1     1     2     1
2     1     16    1
3     1     17    1
4     1     18    1
5     2     3     1
6     2     19    1
7     2     20    1
8     3     10    1
9     3     4     1
10    3     12    1
11    4     5     2
12    4     6     am
13    6     7     1
14    6     14    1
15    7     8     2
16    7     9     1
17    9     10    am
18    9     15    1
19    10    11    2
20    12    13    1
21    12    21    1
22    12    22    1
23    13    23    1
24    13    24    1
25    13    25    1
@<TRIPOS>SUBSTRUCTURE
1   LIG    1    
 
########## Number      : 561
########## Name        : ZINC00002162
########## Description : AM1BCC_CHARGES =   0.0001 ORIGINAL_CHARGES =   0.0000

@<TRIPOS>MOLECULE
ZINC00002162
28    29    1     0     0    
SMALL
USER_CHARGES
****
****
@<TRIPOS>ATOM
1     C1       6.5038   -9.0663   -0.9033 C.ar    1  LIG  -0.1210  -0.1500 
2     C2       5.9208   -8.4637   -2.0165 C.ar    1  LIG  -0.1310  -0.1500 
3     C3       4.7730   -7.6832   -1.8686 C.ar    1  LIG  -0.1104  -0.1500 
4     C4       4.1946   -7.5016   -0.6041 C.ar    1  LIG  -0.0825  -0.1435 
5     C5       4.7936   -8.1077    0.5096 C.ar    1  LIG  -0.1117  -0.1500 
6     C6       5.9413   -8.8878    0.3591 C.ar    1  LIG  -0.1311  -0.1500 
7     C7       2.9662   -6.6462   -0.4408 C.3     1  LIG   0.0353   0.3735 
8     S1       3.3999   -4.9090   -0.1351 S.3     1  LIG  -0.2412  -0.3710 
9     C8       1.7930   -4.2008    0.0170 C.2     1  LIG   0.5824   0.6248 
10    O1       0.7774   -4.8718   -0.1203 O.2     1  LIG  -0.5403  -0.5700 
11    C9       1.6970   -2.7407    0.2899 C.ar    1  LIG  -0.1683   0.0862 
12    C10      2.7406   -1.9944    0.8528 C.ar    1  LIG  -0.0832  -0.1500 
13    C11      2.5782   -0.6267    1.0907 C.ar    1  LIG  -0.1434  -0.1500 
14    C12      1.3768    0.0042    0.7747 C.ar    1  LIG  -0.0991  -0.1500 
15    C13      0.3315   -0.7318    0.2226 C.ar    1  LIG  -0.1454  -0.1500 
16    C14      0.4878   -2.0986   -0.0168 C.ar    1  LIG  -0.0704  -0.1500 
17    H1       7.3973   -9.6729   -1.0193 H       1  LIG   0.1331   0.1500 
18    H2       6.3607   -8.6000   -3.0003 H       1  LIG   0.1341   0.1500 
19    H3       4.3328   -7.2164   -2.7464 H       1  LIG   0.1370   0.1500 
20    H4       4.3695   -7.9748    1.5020 H       1  LIG   0.1361   0.1500 
21    H5       6.3972   -9.3547    1.2275 H       1  LIG   0.1339   0.1500 
22    H6       2.3465   -6.7156   -1.3422 H       1  LIG   0.0865   0.0000 
23    H7       2.3619   -7.0245    0.3919 H       1  LIG   0.0829   0.0000 
24    H8       3.6876   -2.4470    1.1311 H       1  LIG   0.1514   0.1500 
25    H9       3.3914   -0.0538    1.5280 H       1  LIG   0.1379   0.1500 
26    H10      1.2548    1.0672    0.9617 H       1  LIG   0.1353   0.1500 
27    H11     -0.6071   -0.2425   -0.0221 H       1  LIG   0.1384   0.1500 
28    H12     -0.3442   -2.6482   -0.4508 H       1  LIG   0.1548   0.1500 
@<TRIPOS>BOND
1     1     6     ar
2     1     2     ar
3     1     17    1
4     2     3     ar
5     2     18    1
6     3     4     ar
7     3     19    1
8     4     5     ar
9     4     7     1
10    5     6     ar
11    5     20    1
12    6     21    1
13    7     8     1
14    7     22    1
15    7     23    1
16    8     9     1
17    9     10    2
18    9     11    1
19    11    16    ar
20    11    12    ar
21    12    13    ar
22    12    24    1
23    13    14    ar
24    13    25    1
25    14    15    ar
26    14    26    1
27    15    16    ar
28    15    27    1
29    16    28    1
@<TRIPOS>SUBSTRUCTURE
1   LIG    1    
 
########## Number      : 562
########## Name        : ZINC00002171
########## Description : AM1BCC_CHARGES =  -0.0000 ORIGINAL_CHARGES =   0.0000

@<TRIPOS>MOLECULE
ZINC00002171
21    22    1     0     0    
SMALL
USER_CHARGES
****
****
@<TRIPOS>ATOM
1     C1       5.3890   -9.0397   -0.5547 C.3     1  LIG  -0.0503   0.1435 
2     C2       4.1334   -8.3718   -0.0581 C.ar    1  LIG  -0.0973  -0.1435 
3     C3       3.6352   -8.7374    1.1988 C.ar    1  LIG  -0.0867  -0.1500 
4     C4       2.4810   -8.1472    1.6948 C.ar    1  LIG  -0.2283  -0.1500 
5     C5       1.8193   -7.1857    0.9322 C.ar    1  LIG   0.0949   0.0825 
6     C6       2.2731   -6.7859   -0.3250 C.ar    1  LIG   0.3792   0.3100 
7     C7       3.4500   -7.3894   -0.8281 C.ar    1  LIG  -0.1136   0.0000 
8     C8       3.8864   -6.9669   -2.1008 C.ar    1  LIG  -0.0936  -0.1500 
9     C9       3.1873   -6.0047   -2.8165 C.ar    1  LIG  -0.2377  -0.1500 
10    C10      2.0547   -5.4810   -2.2365 C.ar    1  LIG   0.3967   0.1600 
11    N1       1.5941   -5.8497   -1.0228 N.ar    1  LIG  -0.6248  -0.6200 
12    O1       0.6771   -6.6066    1.4317 O.3     1  LIG  -0.4670  -0.5325 
13    H1       0.4895   -6.9839    2.3076 H       1  LIG   0.4156   0.4500 
14    H2       5.7736   -9.7657    0.1698 H       1  LIG   0.0428   0.0000 
15    H3       5.1896   -9.5808   -1.4852 H       1  LIG   0.0451   0.0000 
16    H4       6.1752   -8.2961   -0.7209 H       1  LIG   0.0449   0.0000 
17    H5       4.1449   -9.4863    1.8001 H       1  LIG   0.1351   0.1500 
18    H6       2.1077   -8.4417    2.6713 H       1  LIG   0.1364   0.1500 
19    H7       4.7825   -7.3855   -2.5528 H       1  LIG   0.1404   0.1500 
20    H8       3.5215   -5.6793   -3.7945 H       1  LIG   0.1439   0.1500 
21    H9       1.4641   -4.7257   -2.7444 H       1  LIG   0.0243   0.1500 
@<TRIPOS>BOND
1     1     2     1
2     1     14    1
3     1     15    1
4     1     16    1
5     2     7     ar
6     2     3     ar
7     3     4     ar
8     3     17    1
9     4     5     ar
10    4     18    1
11    5     6     ar
12    5     12    1
13    6     11    ar
14    6     7     ar
15    7     8     ar
16    8     9     ar
17    8     19    1
18    9     10    ar
19    9     20    1
20    10    11    ar
21    10    21    1
22    12    13    1
@<TRIPOS>SUBSTRUCTURE
1   LIG    1    
 
########## Number      : 563
########## Name        : ZINC00002176
########## Description : AM1BCC_CHARGES =   1.0000 ORIGINAL_CHARGES =   1.0000

@<TRIPOS>MOLECULE
ZINC00002176
46    47    1     0     0    
SMALL
USER_CHARGES
****
****
@<TRIPOS>ATOM
1     C1       6.1948  -11.7559    1.1053 C.3     1  LIG  -0.1341   0.0000 
2     C2       5.1132  -10.7521    0.6812 C.3     1  LIG   0.1528   0.5030 
3     C3       3.7320  -11.2831    1.0719 C.3     1  LIG  -0.1261   0.0000 
4     C4       5.2100  -10.4882   -0.8230 C.3     1  LIG  -0.1269   0.0000 
5     C5       4.5133   -8.2792    1.2179 C.3     1  LIG   0.0986   0.5030 
6     C6       4.9704   -7.1542    2.1523 C.3     1  LIG   0.1172   0.2800 
7     C7       4.1211   -5.9003    1.9339 C.3     1  LIG   0.1011   0.2800 
8     O1       4.6978   -4.8474    2.7146 O.3     1  LIG  -0.4359  -0.3420 
9     C8       4.0541   -3.6491    2.6577 C.2     1  LIG   0.4145   0.3508 
10    C9       4.4604   -2.4558    3.3918 C.2     1  LIG   0.5482   0.3718 
11    N1       3.6949   -1.3938    3.0835 N.2     1  LIG  -0.5756  -0.5095 
12    S1       2.5512   -1.9181    1.9979 S.3     1  LIG   0.4745   0.4414 
13    N2       3.0001   -3.5122    1.8473 N.2     1  LIG  -0.5788  -0.5095 
14    N3       5.5117   -2.3966    4.2824 N.pl3   1  LIG  -0.7705  -0.8212 
15    C10      6.1672   -3.5803    4.8422 C.3     1  LIG   0.1981   0.3691 
16    C11      6.6878   -3.2877    6.2486 C.3     1  LIG   0.1076   0.2800 
17    O2       7.5106   -2.1218    6.2598 O.3     1  LIG  -0.3983  -0.5600 
18    C12      6.7528   -0.9783    5.8624 C.3     1  LIG   0.1026   0.2800 
19    C13      6.2627   -1.1408    4.4289 C.3     1  LIG   0.1878   0.3691 
20    O3       4.8050   -7.5908    3.4949 O.3     1  LIG  -0.6316  -0.6800 
21    H1       5.0362   -6.8434    4.0743 H       1  LIG   0.4607   0.4000 
22    H2       6.0584  -12.7178    0.5982 H       1  LIG   0.0988   0.0000 
23    H3       7.1983  -11.3909    0.8579 H       1  LIG   0.0663   0.0000 
24    H4       6.1645  -11.9435    2.1849 H       1  LIG   0.0686   0.0000 
25    H5       3.5583  -12.2720    0.6322 H       1  LIG   0.0965   0.0000 
26    H6       3.6339  -11.3820    2.1588 H       1  LIG   0.0686   0.0000 
27    H7       2.9271  -10.6311    0.7173 H       1  LIG   0.0653   0.0000 
28    H8       5.1239  -11.4239   -1.3873 H       1  LIG   0.0976   0.0000 
29    H9       4.4097   -9.8283   -1.1741 H       1  LIG   0.0657   0.0000 
30    H10      6.1687  -10.0284   -1.0878 H       1  LIG   0.0638   0.0000 
31    H11      3.4909   -8.5879    1.4517 H       1  LIG   0.1164   0.0000 
32    H12      4.6026   -7.9863    0.1687 H       1  LIG   0.1111   0.0000 
33    H13      6.0311   -6.9335    1.9540 H       1  LIG   0.0782   0.0000 
34    H14      3.0926   -6.0861    2.2691 H       1  LIG   0.0808   0.0000 
35    H15      4.1347   -5.6263    0.8718 H       1  LIG   0.0806   0.0000 
36    H16      5.4800   -4.4275    4.9293 H       1  LIG   0.0490   0.0000 
37    H17      6.9990   -3.8660    4.1878 H       1  LIG   0.0474   0.0000 
38    H18      5.8607   -3.1536    6.9566 H       1  LIG   0.0438   0.0000 
39    H19      7.2915   -4.1291    6.6038 H       1  LIG   0.0758   0.0000 
40    H20      5.9172   -0.8331    6.5578 H       1  LIG   0.0484   0.0000 
41    H21      7.4041   -0.1019    5.9377 H       1  LIG   0.0892   0.0000 
42    H22      7.1220   -1.1776    3.7479 H       1  LIG   0.0578   0.0000 
43    H23      5.6669   -0.2607    4.1628 H       1  LIG   0.0917   0.0000 
44    N4       5.4013   -9.4725    1.4414 N.4     1  LIG  -0.7604  -0.9060 
45    H24      6.3720   -9.1901    1.2451 H       1  LIG   0.4457   0.4500 
46    H25      5.3831   -9.6807    2.4512 H       1  LIG   0.4674   0.4500 
@<TRIPOS>BOND
1     1     2     1
2     1     22    1
3     1     23    1
4     1     24    1
5     2     3     1
6     2     4     1
7     2     44    1
8     3     25    1
9     3     26    1
10    3     27    1
11    4     28    1
12    4     29    1
13    4     30    1
14    5     6     1
15    5     31    1
16    5     32    1
17    5     44    1
18    6     7     1
19    6     20    1
20    6     33    1
21    7     8     1
22    7     34    1
23    7     35    1
24    8     9     1
25    9     13    2
26    9     10    1
27    10    11    2
28    10    14    1
29    11    12    1
30    12    13    1
31    14    19    1
32    14    15    1
33    15    16    1
34    15    36    1
35    15    37    1
36    16    17    1
37    16    38    1
38    16    39    1
39    17    18    1
40    18    19    1
41    18    40    1
42    18    41    1
43    19    42    1
44    19    43    1
45    20    21    1
46    44    45    1
47    44    46    1
@<TRIPOS>SUBSTRUCTURE
1   LIG    1    
 
########## Number      : 564
########## Name        : ZINC00002189
########## Description : AM1BCC_CHARGES =   0.0003 ORIGINAL_CHARGES =  -0.0000

@<TRIPOS>MOLECULE
ZINC00002189
25    26    1     0     0    
SMALL
USER_CHARGES
****
****
@<TRIPOS>ATOM
1     C1       4.8892   -8.3464   -2.0215 C.3     1  LIG  -0.0578   0.1435 
2     C2       4.1071   -7.7900   -0.8698 C.ar    1  LIG  -0.0635  -0.1435 
3     C3       3.4810   -8.6498    0.0431 C.ar    1  LIG  -0.1333  -0.1500 
4     C4       2.7864   -8.1367    1.1411 C.ar    1  LIG  -0.1143  -0.1500 
5     C5       2.7128   -6.7599    1.3405 C.ar    1  LIG  -0.1507  -0.1500 
6     C6       3.3295   -5.9015    0.4291 C.ar    1  LIG   0.0764   0.0825 
7     C7       4.0438   -6.4075   -0.6583 C.ar    1  LIG  -0.1327  -0.1500 
8     O1       3.3119   -4.5424    0.6233 O.3     1  LIG  -0.2315  -0.1592 
9     C8       2.1210   -3.8701    0.4508 C.2     1  LIG  -0.1590   0.0911 
10    C9       1.0161   -4.2715   -0.1932 C.2     1  LIG  -0.0162  -0.0410 
11    N1      -0.0806   -3.4580   -0.2889 N.am    1  LIG  -0.4590  -0.5390 
12    C10     -0.1274   -2.1786    0.2521 C.2     1  LIG   0.7984   0.8410 
13    O2      -1.1462   -1.4973    0.1377 O.2     1  LIG  -0.5974  -0.5700 
14    N2       0.9981   -1.7140    0.9067 N.2     1  LIG  -0.6027  -0.6610 
15    C11      2.0252   -2.4961    0.9901 C.2     1  LIG   0.5496   0.3756 
16    H1      -0.8992   -3.8032   -0.7795 H       1  LIG   0.3429   0.3700 
17    H2       4.4617   -9.2953   -2.3621 H       1  LIG   0.0468   0.0000 
18    H3       4.8721   -7.6589   -2.8738 H       1  LIG   0.0470   0.0000 
19    H4       5.9285   -8.5134   -1.7224 H       1  LIG   0.0537   0.0000 
20    H5       3.5357   -9.7274   -0.0926 H       1  LIG   0.1379   0.1500 
21    H6       2.3094   -8.8134    1.8445 H       1  LIG   0.1389   0.1500 
22    H7       2.1834   -6.3669    2.2035 H       1  LIG   0.1482   0.1500 
23    H8       4.5447   -5.7254   -1.3407 H       1  LIG   0.1517   0.1500 
24    H9       0.9167   -5.2375   -0.6724 H       1  LIG   0.1702   0.1500 
25    H10      2.9263   -2.1289    1.5085 H       1  LIG   0.0567   0.0600 
@<TRIPOS>BOND
1     1     2     1
2     1     17    1
3     1     18    1
4     1     19    1
5     2     7     ar
6     2     3     ar
7     3     4     ar
8     3     20    1
9     4     5     ar
10    4     21    1
11    5     6     ar
12    5     22    1
13    6     7     ar
14    6     8     1
15    7     23    1
16    8     9     1
17    9     15    1
18    9     10    2
19    10    11    1
20    10    24    1
21    11    12    am
22    11    16    1
23    12    13    2
24    12    14    1
25    14    15    2
26    15    25    1
@<TRIPOS>SUBSTRUCTURE
1   LIG    1    
 
########## Number      : 565
########## Name        : ZINC00002192
########## Description : AM1BCC_CHARGES =  -0.9999 ORIGINAL_CHARGES =  -1.0000

@<TRIPOS>MOLECULE
ZINC00002192
33    35    1     0     0    
SMALL
USER_CHARGES
****
****
@<TRIPOS>ATOM
1     C1      -0.3621   -0.6935    1.6222 C.3     1  LIG  -0.0531   0.1435 
2     C2       0.7198   -0.1100    0.7546 C.ar    1  LIG  -0.0698  -0.1435 
3     C3       0.7952   -0.5206   -0.5884 C.ar    1  LIG  -0.1370  -0.1500 
4     C4       1.7644    0.0081   -1.4396 C.ar    1  LIG   0.0161   0.1770 
5     C5       2.6674    0.9550   -0.9729 C.ar    1  LIG  -0.1288  -0.1500 
6     C6       2.6057    1.3659    0.3586 C.ar    1  LIG  -0.0916  -0.1500 
7     C7       1.6535    0.8289    1.2477 C.ar    1  LIG  -0.0980  -0.1435 
8     C8       1.6188    1.3175    2.6797 C.3     1  LIG   0.1062   0.3991 
9     N1       2.9294    1.2797    3.3188 N.pl3   1  LIG   0.0529   0.3140 
10    C9       3.6076    0.1692    3.7566 C.ar    1  LIG  -0.0588  -0.1516 
11    C10      3.2982   -1.1974    3.7157 C.ar    1  LIG  -0.1690  -0.1500 
12    C11      4.2292   -2.0904    4.2517 C.ar    1  LIG  -0.1146  -0.1500 
13    C12      5.4215   -1.6340    4.8063 C.ar    1  LIG  -0.1976  -0.1500 
14    C13      5.7173   -0.2662    4.8416 C.ar    1  LIG  -0.0328  -0.1500 
15    C14      4.7936    0.6559    4.3077 C.ar    1  LIG  -0.1889   0.0000 
16    C15      4.7085    2.0689    4.1540 C.2     1  LIG   0.3426   0.0558 
17    N2       3.5655    2.4395    3.5611 N.2     1  LIG  -0.5213  -0.7068 
18    C16      5.7383    3.0604    4.5882 C.2     1  LIG   0.8531   1.0330 
19    O1       5.4848    4.2838    4.3565 O.co2   1  LIG  -0.7893  -0.9000 
20    Cl1      1.8353   -0.5066   -3.0812 Cl      1  LIG  -0.1240  -0.1770 
21    H1      -1.0398   -1.3332    1.0466 H       1  LIG   0.0345   0.0000 
22    H2       0.0740   -1.3065    2.4163 H       1  LIG   0.0510   0.0000 
23    H3      -0.9691    0.1041    2.0626 H       1  LIG   0.0432   0.0000 
24    H4       0.0866   -1.2530   -0.9701 H       1  LIG   0.1350   0.1500 
25    H5       3.4201    1.3828   -1.6293 H       1  LIG   0.1466   0.1500 
26    H6       3.3156    2.1169    0.6994 H       1  LIG   0.1745   0.1500 
27    H7       1.2524    2.3507    2.7044 H       1  LIG   0.0792   0.0000 
28    H8       0.9602    0.7221    3.3189 H       1  LIG   0.0486   0.0000 
29    H9       2.3728   -1.5601    3.2833 H       1  LIG   0.1150   0.1500 
30    H10      4.0187   -3.1567    4.2339 H       1  LIG   0.1066   0.1500 
31    H11      6.1325   -2.3457    5.2177 H       1  LIG   0.1139   0.1500 
32    H12      6.6536    0.0654    5.2805 H       1  LIG   0.1809   0.1500 
33    O2       6.7835    2.6121    5.1521 O.co2   1  LIG  -0.8252  -0.9000 
@<TRIPOS>BOND
1     1     2     1
2     1     21    1
3     1     22    1
4     1     23    1
5     2     7     ar
6     2     3     ar
7     3     4     ar
8     3     24    1
9     4     5     ar
10    4     20    1
11    5     6     ar
12    5     25    1
13    6     7     ar
14    6     26    1
15    7     8     1
16    8     9     1
17    8     27    1
18    8     28    1
19    9     17    1
20    9     10    1
21    10    15    ar
22    10    11    ar
23    11    12    ar
24    11    29    1
25    12    13    ar
26    12    30    1
27    13    14    ar
28    13    31    1
29    14    15    ar
30    14    32    1
31    15    16    1
32    16    17    2
33    16    18    1
34    18    19    2
35    18    33    1
@<TRIPOS>SUBSTRUCTURE
1   LIG    1    
 
########## Number      : 566
########## Name        : ZINC00002196
########## Description : AM1BCC_CHARGES =   0.0001 ORIGINAL_CHARGES =  -0.0000

@<TRIPOS>MOLECULE
ZINC00002196
34    35    1     0     0    
SMALL
USER_CHARGES
****
****
@<TRIPOS>ATOM
1     C1       5.6384   -9.8488    3.8558 C.3     1  LIG  -0.0698   0.1435 
2     C2       5.1740   -8.8505    2.8380 C.ar    1  LIG  -0.0057  -0.1435 
3     C3       3.8683   -8.3443    2.8868 C.ar    1  LIG  -0.1626  -0.1500 
4     C4       3.4417   -7.3909    1.9611 C.ar    1  LIG  -0.0103  -0.1500 
5     C5       4.3299   -6.9402    0.9854 C.ar    1  LIG  -0.4053  -0.0090 
6     C6       5.6396   -7.4156    0.9342 C.ar    1  LIG  -0.0132  -0.1500 
7     C7       6.0584   -8.3689    1.8635 C.ar    1  LIG  -0.1628  -0.1500 
8     S1       3.8018   -5.7129   -0.1751 S.o2    1  LIG   1.5411   1.4470 
9     O1       4.9845   -5.0113   -0.6339 O.2     1  LIG  -0.6378  -0.6500 
10    O2       2.6983   -4.9914    0.4276 O.2     1  LIG  -0.6327  -0.6500 
11    N1       3.2111   -6.7020   -1.4290 N.am    1  LIG  -0.6755  -0.7943 
12    C8       2.6444   -6.1952   -2.6364 C.2     1  LIG   0.7843   0.8663 
13    O3       2.5455   -4.9868   -2.8372 O.2     1  LIG  -0.6106  -0.5700 
14    N2       2.2144   -7.1434   -3.5506 N.am    1  LIG  -0.4505  -0.6602 
15    C9       2.3192   -8.5926   -3.4243 C.3     1  LIG   0.0781   0.3001 
16    C10      1.9313   -9.1247   -4.7968 C.3     1  LIG  -0.0872   0.0000 
17    C11      0.9622   -8.0691   -5.3133 C.3     1  LIG  -0.0933   0.0000 
18    C12      1.5719   -6.7729   -4.8024 C.3     1  LIG   0.0882   0.3001 
19    H1       3.2550   -7.7146   -1.2877 H       1  LIG   0.3283   0.4200 
20    H2       6.4081  -10.5053    3.4365 H       1  LIG   0.0514   0.0000 
21    H3       6.0512   -9.3308    4.7269 H       1  LIG   0.0609   0.0000 
22    H4       4.8109  -10.4873    4.1828 H       1  LIG   0.0513   0.0000 
23    H5       3.1744   -8.6906    3.6492 H       1  LIG   0.1429   0.1500 
24    H6       2.4230   -7.0183    2.0168 H       1  LIG   0.1592   0.1500 
25    H7       6.3425   -7.0623    0.1853 H       1  LIG   0.1552   0.1500 
26    H8       7.0817   -8.7345    1.8235 H       1  LIG   0.1426   0.1500 
27    H9       3.3311   -8.8878   -3.1323 H       1  LIG   0.0506   0.0000 
28    H10      1.6124   -8.9145   -2.6519 H       1  LIG   0.0333   0.0000 
29    H11      2.8141   -9.1653   -5.4464 H       1  LIG   0.0558   0.0000 
30    H12      1.4924  -10.1251   -4.7523 H       1  LIG   0.0537   0.0000 
31    H13      0.8521   -8.0838   -6.4009 H       1  LIG   0.0576   0.0000 
32    H14     -0.0263   -8.2227   -4.8640 H       1  LIG   0.0541   0.0000 
33    H15      0.8318   -5.9828   -4.6447 H       1  LIG   0.0626   0.0000 
34    H16      2.3496   -6.4003   -5.4784 H       1  LIG   0.0662   0.0000 
@<TRIPOS>BOND
1     1     2     1
2     1     20    1
3     1     21    1
4     1     22    1
5     2     7     ar
6     2     3     ar
7     3     4     ar
8     3     23    1
9     4     5     ar
10    4     24    1
11    5     6     ar
12    5     8     1
13    6     7     ar
14    6     25    1
15    7     26    1
16    8     9     2
17    8     10    2
18    8     11    1
19    11    12    am
20    11    19    1
21    12    13    2
22    12    14    am
23    14    18    1
24    14    15    1
25    15    16    1
26    15    27    1
27    15    28    1
28    16    17    1
29    16    29    1
30    16    30    1
31    17    18    1
32    17    31    1
33    17    32    1
34    18    33    1
35    18    34    1
@<TRIPOS>SUBSTRUCTURE
1   LIG    1    
 
########## Number      : 567
########## Name        : ZINC00002199
########## Description : AM1BCC_CHARGES =   0.0000 ORIGINAL_CHARGES =   0.0000

@<TRIPOS>MOLECULE
ZINC00002199
43    44    1     0     0    
SMALL
USER_CHARGES
****
****
@<TRIPOS>ATOM
1     C1       1.0743   -6.3070   -7.0891 C.3     1  LIG  -0.0700   0.1435 
2     C2       1.5261   -5.5039   -5.9062 C.ar    1  LIG  -0.0056  -0.1435 
3     C3       1.9387   -6.1452   -4.7305 C.ar    1  LIG  -0.1627  -0.1500 
4     C4       2.3293   -5.4015   -3.6160 C.ar    1  LIG  -0.0119  -0.1500 
5     C5       2.3018   -4.0089   -3.6796 C.ar    1  LIG  -0.4061  -0.0090 
6     C6       1.8732   -3.3527   -4.8328 C.ar    1  LIG  -0.0123  -0.1500 
7     C7       1.4842   -4.1037   -5.9429 C.ar    1  LIG  -0.1627  -0.1500 
8     S1       2.7706   -3.0615   -2.2604 S.o2    1  LIG   1.5435   1.4470 
9     O1       2.1085   -1.7756   -2.3581 O.2     1  LIG  -0.6367  -0.6500 
10    O2       2.5863   -3.9038   -1.0951 O.2     1  LIG  -0.6349  -0.6500 
11    N1       4.4355   -2.8612   -2.5523 N.am    1  LIG  -0.6831  -0.7943 
12    C8       5.3102   -2.1499   -1.6847 C.2     1  LIG   0.7939   0.8663 
13    O3       4.9211   -1.6225   -0.6495 O.2     1  LIG  -0.6206  -0.5700 
14    N2       6.6093   -2.1342   -2.1473 N.am    1  LIG  -0.5750  -0.7301 
15    C9       7.7444   -1.4884   -1.4908 C.3     1  LIG   0.1360   0.3001 
16    C10      7.5126    0.0261   -1.3992 C.3     1  LIG  -0.1216   0.0000 
17    C11      7.9868   -2.1236   -0.1076 C.3     1  LIG  -0.0583   0.1435 
18    C12      9.3078   -1.7334    0.5113 C.ar    1  LIG  -0.0794  -0.1435 
19    C13      9.3572   -0.8005    1.5560 C.ar    1  LIG  -0.1225  -0.1500 
20    C14     10.5802   -0.4358    2.1214 C.ar    1  LIG  -0.1281  -0.1500 
21    C15     11.7640   -0.9993    1.6489 C.ar    1  LIG  -0.1312  -0.1500 
22    C16     11.7264   -1.9281    0.6107 C.ar    1  LIG  -0.1289  -0.1500 
23    C17     10.5046   -2.2940    0.0437 C.ar    1  LIG  -0.1332  -0.1500 
24    H1       4.8242   -3.2788   -3.4032 H       1  LIG   0.3245   0.4200 
25    H2       6.8014   -2.6101   -3.0213 H       1  LIG   0.3125   0.3700 
26    H3       1.6075   -7.2621   -7.1396 H       1  LIG   0.0515   0.0000 
27    H4       0.0002   -6.5046   -7.0191 H       1  LIG   0.0609   0.0000 
28    H5       1.2761   -5.7734   -8.0238 H       1  LIG   0.0514   0.0000 
29    H6       1.9573   -7.2312   -4.6763 H       1  LIG   0.1430   0.1500 
30    H7       2.6499   -5.9224   -2.7185 H       1  LIG   0.1575   0.1500 
31    H8       1.8366   -2.2686   -4.8883 H       1  LIG   0.1571   0.1500 
32    H9       1.1465   -3.5890   -6.8394 H       1  LIG   0.1429   0.1500 
33    H10      8.6406   -1.6203   -2.1199 H       1  LIG   0.0504   0.0000 
34    H11      6.6983    0.2760   -0.7118 H       1  LIG   0.0721   0.0000 
35    H12      8.4134    0.5418   -1.0514 H       1  LIG   0.0526   0.0000 
36    H13      7.2552    0.4364   -2.3821 H       1  LIG   0.0347   0.0000 
37    H14      7.1724   -1.8752    0.5842 H       1  LIG   0.0843   0.0000 
38    H15      7.9673   -3.2187   -0.1952 H       1  LIG   0.0575   0.0000 
39    H16      8.4433   -0.3492    1.9345 H       1  LIG   0.1384   0.1500 
40    H17     10.6089    0.2886    2.9303 H       1  LIG   0.1323   0.1500 
41    H18     12.7151   -0.7149    2.0896 H       1  LIG   0.1311   0.1500 
42    H19     12.6487   -2.3680    0.2421 H       1  LIG   0.1298   0.1500 
43    H20     10.4914   -3.0204   -0.7651 H       1  LIG   0.1269   0.1500 
@<TRIPOS>BOND
1     1     2     1
2     1     26    1
3     1     27    1
4     1     28    1
5     2     7     ar
6     2     3     ar
7     3     4     ar
8     3     29    1
9     4     5     ar
10    4     30    1
11    5     6     ar
12    5     8     1
13    6     7     ar
14    6     31    1
15    7     32    1
16    8     9     2
17    8     10    2
18    8     11    1
19    11    12    am
20    11    24    1
21    12    13    2
22    12    14    am
23    14    15    1
24    14    25    1
25    15    16    1
26    15    17    1
27    15    33    1
28    16    34    1
29    16    35    1
30    16    36    1
31    17    18    1
32    17    37    1
33    17    38    1
34    18    23    ar
35    18    19    ar
36    19    20    ar
37    19    39    1
38    20    21    ar
39    20    40    1
40    21    22    ar
41    21    41    1
42    22    23    ar
43    22    42    1
44    23    43    1
@<TRIPOS>SUBSTRUCTURE
1   LIG    1    
 
########## Number      : 568
########## Name        : ZINC00002203
########## Description : AM1BCC_CHARGES =  -1.0002 ORIGINAL_CHARGES =  -1.0000

@<TRIPOS>MOLECULE
ZINC00002203
26    29    1     0     0    
SMALL
USER_CHARGES
****
****
@<TRIPOS>ATOM
1     C1       1.4273   -7.5709   -4.5959 C.ar    1  LIG  -0.3073  -0.1500 
2     C2       1.9331   -6.2856   -4.7465 C.ar    1  LIG  -0.0121  -0.1500 
3     C3       2.1266   -5.4962   -3.6144 C.ar    1  LIG  -0.3307   0.0862 
4     C4       2.6571   -4.1330   -3.7125 C.2     1  LIG   0.6077   0.3976 
5     O1       2.9494   -3.6386   -4.7914 O.2     1  LIG  -0.5476  -0.5700 
6     C5       2.8180   -3.3960   -2.4495 C.ar    1  LIG  -0.2034   0.0862 
7     C6       3.3182   -2.0886   -2.4538 C.ar    1  LIG  -0.0624  -0.1500 
8     C7       3.4659   -1.3995   -1.2441 C.ar    1  LIG  -0.0208   0.0410 
9     C8       3.1121   -2.0236   -0.0410 C.ar    1  LIG  -0.0919  -0.1500 
10    C9       2.6134   -3.3307   -0.0515 C.ar    1  LIG  -0.0015   0.1770 
11    C10      2.4628   -4.0262   -1.2565 C.ar    1  LIG   0.0912   0.0825 
12    O2       1.9678   -5.3070   -1.1999 O.3     1  LIG  -0.3121  -0.1650 
13    C11      1.8094   -6.0139   -2.3684 C.ar    1  LIG   0.6604   0.3925 
14    N1       1.3158   -7.2627   -2.2001 N.ar    1  LIG  -0.6845  -0.6200 
15    C12      1.1373   -8.0086   -3.3143 C.ar    1  LIG   0.4400   0.1600 
16    Cl1      2.1902   -4.0598    1.4577 Cl      1  LIG  -0.0963  -0.1770 
17    C13      4.0001    0.0001   -1.2353 C.2     1  LIG   0.3437   0.6340 
18    N2       4.6702    1.9242   -0.5511 N.2     1  LIG  -0.1618  -0.2500 
19    N3       4.7854    1.8891   -1.8943 N.2     1  LIG  -0.1619  -0.2500 
20    N4       4.3682    0.6843   -2.3481 N.2     1  LIG  -0.4085  -0.5875 
21    H1       1.2647   -8.2116   -5.4552 H       1  LIG   0.1411   0.1500 
22    H2       2.1699   -5.9151   -5.7397 H       1  LIG   0.1604   0.1500 
23    H3       3.5882   -1.6185   -3.3966 H       1  LIG   0.1809   0.1500 
24    H4       3.2204   -1.5027    0.9080 H       1  LIG   0.1741   0.1500 
25    H5       0.7403   -9.0042   -3.1434 H       1  LIG   0.0183   0.1500 
26    N5       4.1766    0.7427   -0.1131 N.2     1  LIG  -0.4152  -0.5875 
@<TRIPOS>BOND
1     1     15    ar
2     1     2     ar
3     1     21    1
4     2     3     ar
5     2     22    1
6     3     13    ar
7     3     4     1
8     4     5     2
9     4     6     1
10    6     11    ar
11    6     7     ar
12    7     8     ar
13    7     23    1
14    8     9     ar
15    8     17    1
16    9     10    ar
17    9     24    1
18    10    11    ar
19    10    16    1
20    11    12    1
21    12    13    1
22    13    14    ar
23    14    15    ar
24    15    25    1
25    17    20    2
26    17    26    1
27    18    19    2
28    18    26    1
29    19    20    1
@<TRIPOS>SUBSTRUCTURE
1   LIG    1    
 
########## Number      : 569
########## Name        : ZINC00002204
########## Description : AM1BCC_CHARGES =   0.0000 ORIGINAL_CHARGES =   0.0000

@<TRIPOS>MOLECULE
ZINC00002204
34    36    1     0     0    
SMALL
USER_CHARGES
****
****
@<TRIPOS>ATOM
1     C1       4.3560    1.3577    2.9350 C.3     1  LIG   0.1238   0.2800 
2     O1       3.7701    1.4101    1.6309 O.3     1  LIG  -0.4223  -0.4300 
3     C2       2.7506    2.3101    1.4839 C.2     1  LIG   0.6216   0.6590 
4     O2       2.3138    3.0328    2.3710 O.2     1  LIG  -0.5037  -0.5700 
5     C3       2.2134    2.2531    0.0592 C.3     1  LIG   0.3059   0.6210 
6     O3       3.3524    2.5217   -0.7671 O.3     1  LIG  -0.3454  -0.3625 
7     C4       3.1173    3.1895   -1.9379 C.ar    1  LIG   0.1356   0.0825 
8     C5       4.0240    4.2194   -2.2186 C.ar    1  LIG  -0.1212  -0.1500 
9     C6       3.8915    4.9857   -3.3749 C.ar    1  LIG  -0.1052  -0.1500 
10    C7       2.8539    4.7135   -4.2603 C.ar    1  LIG   0.0046   0.1770 
11    C8       1.9612    3.6718   -4.0042 C.ar    1  LIG  -0.0986  -0.1500 
12    C9       2.0937    2.8822   -2.8475 C.ar    1  LIG  -0.1032  -0.1435 
13    C10      1.1302    1.7405   -2.6365 C.3     1  LIG   0.0074   0.2870 
14    C11     -0.0758    2.0873   -1.7930 C.ar    1  LIG  -0.0935  -0.1435 
15    C12     -1.3455    1.6933   -2.2538 C.ar    1  LIG  -0.1111  -0.1500 
16    C13     -2.4981    2.0073   -1.5305 C.ar    1  LIG   0.0135   0.1770 
17    C14     -2.4111    2.7173   -0.3377 C.ar    1  LIG  -0.1125  -0.1500 
18    C15     -1.1605    3.1028    0.1391 C.ar    1  LIG  -0.1119  -0.1500 
19    C16      0.0029    2.7699   -0.5658 C.ar    1  LIG   0.0900   0.0825 
20    O4       1.1666    3.2231    0.0005 O.3     1  LIG  -0.3197  -0.3625 
21    Cl1     -4.0392    1.5201   -2.1247 Cl      1  LIG  -0.0848  -0.1770 
22    Cl2      2.6761    5.6608   -5.6872 Cl      1  LIG  -0.0900  -0.1770 
23    H1       5.1585    0.6154    2.9172 H       1  LIG   0.0681   0.0000 
24    H2       4.7839    2.3297    3.1985 H       1  LIG   0.0504   0.0000 
25    H3       3.6098    1.0496    3.6736 H       1  LIG   0.0454   0.0000 
26    H4       1.8603    1.2223   -0.0791 H       1  LIG   0.0904   0.0000 
27    H5       4.8314    4.4393   -1.5239 H       1  LIG   0.1577   0.1500 
28    H6       4.5972    5.7887   -3.5688 H       1  LIG   0.1525   0.1500 
29    H7       1.1611    3.4618   -4.7114 H       1  LIG   0.1499   0.1500 
30    H8       0.7999    1.3912   -3.6249 H       1  LIG   0.0680   0.0000 
31    H9       1.6493    0.8723   -2.2136 H       1  LIG   0.0649   0.0000 
32    H10     -1.4346    1.1462   -3.1905 H       1  LIG   0.1516   0.1500 
33    H11     -3.3025    2.9745    0.2277 H       1  LIG   0.1556   0.1500 
34    H12     -1.0929    3.6569    1.0725 H       1  LIG   0.1662   0.1500 
@<TRIPOS>BOND
1     1     2     1
2     1     23    1
3     1     24    1
4     1     25    1
5     2     3     1
6     3     4     2
7     3     5     1
8     5     20    1
9     5     6     1
10    5     26    1
11    6     7     1
12    7     12    ar
13    7     8     ar
14    8     9     ar
15    8     27    1
16    9     10    ar
17    9     28    1
18    10    11    ar
19    10    22    1
20    11    12    ar
21    11    29    1
22    12    13    1
23    13    14    1
24    13    30    1
25    13    31    1
26    14    19    ar
27    14    15    ar
28    15    16    ar
29    15    32    1
30    16    17    ar
31    16    21    1
32    17    18    ar
33    17    33    1
34    18    19    ar
35    18    34    1
36    19    20    1
@<TRIPOS>SUBSTRUCTURE
1   LIG    1    
 
########## Number      : 570
########## Name        : ZINC00002213
########## Description : AM1BCC_CHARGES =   1.0000 ORIGINAL_CHARGES =   1.0000

@<TRIPOS>MOLECULE
ZINC00002213
23    22    1     0     0    
SMALL
USER_CHARGES
****
****
@<TRIPOS>ATOM
1     C1       5.7366   -8.4303   -1.5014 C.3     1  LIG   0.0959   0.5030 
2     C2       6.0112   -7.8239   -0.1325 C.3     1  LIG  -0.0255   0.2900 
3     Cl1      7.6623   -7.1625   -0.0820 Cl      1  LIG  -0.0737  -0.2900 
4     C3       3.8951   -9.1661   -3.0392 C.3     1  LIG   0.0959   0.5030 
5     C4       2.3819   -9.2742   -3.1633 C.3     1  LIG  -0.0256   0.2900 
6     Cl2      1.9247   -9.4552   -4.8734 Cl      1  LIG  -0.0737  -0.2900 
7     C5       4.0501  -10.1564   -0.7035 C.3     1  LIG   0.0870   0.5030 
8     C6       3.0221   -9.8114    0.3624 C.3     1  LIG  -0.0270   0.2900 
9     Cl3      2.7203  -11.2233    1.3994 Cl      1  LIG  -0.0730  -0.2900 
10    H1       5.8526   -7.6635   -2.2755 H       1  LIG   0.1177   0.0000 
11    H2       6.3957   -9.2746   -1.7321 H       1  LIG   0.1207   0.0000 
12    H3       5.3195   -7.0041    0.0840 H       1  LIG   0.0907   0.0000 
13    H4       5.9354   -8.5627    0.6693 H       1  LIG   0.0914   0.0000 
14    H5       4.2524   -8.3029   -3.6119 H       1  LIG   0.1178   0.0000 
15    H6       4.4152  -10.0660   -3.3860 H       1  LIG   0.1208   0.0000 
16    H7       1.9845  -10.1414   -2.6301 H       1  LIG   0.0914   0.0000 
17    H8       1.8876   -8.3755   -2.7820 H       1  LIG   0.0907   0.0000 
18    H9       3.7088  -10.9788   -1.3413 H       1  LIG   0.1203   0.0000 
19    H10      5.0040  -10.4612   -0.2597 H       1  LIG   0.1205   0.0000 
20    H11      3.3699   -8.9970    1.0046 H       1  LIG   0.0898   0.0000 
21    H12      2.0673   -9.5175   -0.0832 H       1  LIG   0.0902   0.0000 
22    N1       4.2992   -8.9335   -1.5870 N.4     1  LIG  -0.6879  -0.9590 
23    H13      3.7097   -8.1587   -1.2517 H       1  LIG   0.4456   0.4500 
@<TRIPOS>BOND
1     1     2     1
2     1     10    1
3     1     11    1
4     1     22    1
5     2     3     1
6     2     12    1
7     2     13    1
8     4     5     1
9     4     14    1
10    4     15    1
11    4     22    1
12    5     6     1
13    5     16    1
14    5     17    1
15    7     8     1
16    7     18    1
17    7     19    1
18    7     22    1
19    8     9     1
20    8     20    1
21    8     21    1
22    22    23    1
@<TRIPOS>SUBSTRUCTURE
1   LIG    1    
 
########## Number      : 571
########## Name        : ZINC00002214
########## Description : AM1BCC_CHARGES =   0.0003 ORIGINAL_CHARGES =   0.0000

@<TRIPOS>MOLECULE
ZINC00002214
20    20    1     0     0    
SMALL
USER_CHARGES
****
****
@<TRIPOS>ATOM
1     C1       3.4517   -6.0299    2.0235 C.ar    1  LIG  -0.1346  -0.1500 
2     C2       4.3927   -7.0540    2.1507 C.ar    1  LIG  -0.1876  -0.1500 
3     C3       4.8523   -7.7042    1.0109 C.ar    1  LIG   0.1068   0.0825 
4     C4       4.3828   -7.3422   -0.2470 C.ar    1  LIG  -0.1321  -0.1500 
5     C5       3.4404   -6.3162   -0.3721 C.ar    1  LIG  -0.1156  -0.1500 
6     C6       2.9657   -5.6501    0.7622 C.ar    1  LIG   0.0272   0.1170 
7     N1       2.0154   -4.6033    0.7350 N.am    1  LIG  -0.4489  -0.5470 
8     C7       1.3848   -4.0452   -0.3782 C.2     1  LIG   0.6684   0.5690 
9     O1       1.5631   -4.3879   -1.5453 O.2     1  LIG  -0.5357  -0.5700 
10    C8       0.4129   -2.9241   -0.0015 C.3     1  LIG   0.1565   0.9310 
11    Cl1     -0.8435   -3.5916    1.0682 Cl      1  LIG  -0.1073  -0.2900 
12    Cl2      1.3200   -1.6341    0.8240 Cl      1  LIG  -0.1066  -0.2900 
13    Cl3     -0.3547   -2.2582   -1.4644 Cl      1  LIG  -0.0513  -0.2900 
14    O2       5.7720   -8.7103    1.0933 O.3     1  LIG  -0.4936  -0.5325 
15    H1       1.7673   -4.2158    1.6427 H       1  LIG   0.3305   0.3700 
16    H2       6.0004   -8.8461    2.0287 H       1  LIG   0.4191   0.4500 
17    H3       3.1020   -5.5310    2.9249 H       1  LIG   0.1342   0.1500 
18    H4       4.7537   -7.3299    3.1371 H       1  LIG   0.1374   0.1500 
19    H5       4.7439   -7.8522   -1.1359 H       1  LIG   0.1575   0.1500 
20    H6       3.1046   -6.0700   -1.3727 H       1  LIG   0.1760   0.1500 
@<TRIPOS>BOND
1     1     6     ar
2     1     2     ar
3     1     17    1
4     2     3     ar
5     2     18    1
6     3     4     ar
7     3     14    1
8     4     5     ar
9     4     19    1
10    5     6     ar
11    5     20    1
12    6     7     1
13    7     8     am
14    7     15    1
15    8     9     2
16    8     10    1
17    10    11    1
18    10    12    1
19    10    13    1
20    14    16    1
@<TRIPOS>SUBSTRUCTURE
1   LIG    1    
 
########## Number      : 572
########## Name        : ZINC00002215
########## Description : AM1BCC_CHARGES =  -0.0000 ORIGINAL_CHARGES =   0.0000

@<TRIPOS>MOLECULE
ZINC00002215
13    13    1     0     0    
SMALL
USER_CHARGES
****
****
@<TRIPOS>ATOM
1     C1       1.7880   -1.0328   -0.1980 C.ar    1  LIG  -0.1445  -0.1500 
2     C2       2.3267    0.0717   -0.8552 C.ar    1  LIG   0.1476   0.0825 
3     C3       1.8048    0.4909   -2.0788 C.ar    1  LIG  -0.0673   0.1770 
4     C4       0.7353   -0.1981   -2.6524 C.ar    1  LIG  -0.0734  -0.1500 
5     C5       0.1899   -1.3079   -1.9976 C.ar    1  LIG  -0.0145   0.1770 
6     C6       0.7168   -1.7258   -0.7690 C.ar    1  LIG   0.0529   0.1770 
7     Cl1      0.0868   -3.0880    0.0877 Cl      1  LIG  -0.0550  -0.1770 
8     Cl2     -1.1333   -2.1219   -2.7555 Cl      1  LIG  -0.0603  -0.1770 
9     Cl3      2.4639    1.8561   -2.9002 Cl      1  LIG  -0.0786  -0.1770 
10    O1       3.3735    0.7154   -0.2553 O.3     1  LIG  -0.4830  -0.5325 
11    H1       3.6374    1.4572   -0.8281 H       1  LIG   0.4345   0.4500 
12    H2       2.2060   -1.3472    0.7554 H       1  LIG   0.1745   0.1500 
13    H3       0.3273    0.1277   -3.6068 H       1  LIG   0.1671   0.1500 
@<TRIPOS>BOND
1     1     6     ar
2     1     2     ar
3     1     12    1
4     2     3     ar
5     2     10    1
6     3     4     ar
7     3     9     1
8     4     5     ar
9     4     13    1
10    5     6     ar
11    5     8     1
12    6     7     1
13    10    11    1
@<TRIPOS>SUBSTRUCTURE
1   LIG    1    
 
########## Number      : 573
########## Name        : ZINC00002222
########## Description : AM1BCC_CHARGES =   2.0004 ORIGINAL_CHARGES =   2.0000

@<TRIPOS>MOLECULE
ZINC00002222
39    40    1     0     0    
SMALL
USER_CHARGES
****
****
@<TRIPOS>ATOM
1     C1      -0.2360    5.3121    6.2366 C.ar    1  LIG  -0.1429  -0.1500 
2     C2      -0.5475    6.0505    5.1024 C.ar    1  LIG  -0.0257   0.2110 
3     N1      -1.1099    5.4616    4.0232 N.ar    1  LIG  -0.0034  -0.2100 
4     C3      -1.3788    4.1367    4.0231 C.ar    1  LIG  -0.0246   0.2110 
5     C4      -1.0886    3.3495    5.1296 C.ar    1  LIG  -0.1346  -0.1500 
6     C5      -0.5116    3.9492    6.2443 C.ar    1  LIG   0.0527   0.0862 
7     C6      -0.1802    3.1701    7.4487 C.2     1  LIG   0.3065   0.3038 
8     N2      -0.4091    1.9002    7.5301 N.2     1  LIG  -0.3334  -0.5130 
9     O1       0.0108    1.4506    8.7851 O.3     1  LIG  -0.2868  -0.3370 
10    C7      -1.4251    6.2734    2.8260 C.3     1  LIG   0.0019   0.4880 
11    C8      -2.8428    6.8196    2.9450 C.3     1  LIG  -0.1313   0.0000 
12    C9      -3.2096    7.6628    1.7298 C.3     1  LIG   0.0018   0.4880 
13    N3      -4.5905    8.1733    1.8856 N.ar    1  LIG  -0.0036  -0.2100 
14    C10     -4.7995    9.3631    2.4924 C.ar    1  LIG  -0.0241   0.2110 
15    C11     -6.0833    9.8694    2.6474 C.ar    1  LIG  -0.1355  -0.1500 
16    C12     -7.1571    9.1292    2.1634 C.ar    1  LIG   0.0526   0.0862 
17    C13     -6.9344    7.9072    1.5384 C.ar    1  LIG  -0.1427  -0.1500 
18    C14     -5.6293    7.4497    1.4112 C.ar    1  LIG  -0.0254   0.2110 
19    C15     -8.5420    9.6105    2.2965 C.2     1  LIG   0.3064   0.3038 
20    N4      -8.8268   10.7353    2.8672 N.2     1  LIG  -0.3330  -0.5130 
21    O2     -10.2129   10.9116    2.8390 O.3     1  LIG  -0.2869  -0.3370 
22    H1      -0.2028    0.5028    8.7380 H       1  LIG   0.4844   0.4000 
23    H2     -10.3127   11.7709    3.2839 H       1  LIG   0.4843   0.4000 
24    H3       0.2142    5.8059    7.0926 H       1  LIG   0.2073   0.1500 
25    H4      -0.3570    7.1160    5.0400 H       1  LIG   0.2035   0.1500 
26    H5      -1.8299    3.7247    3.1275 H       1  LIG   0.2038   0.1500 
27    H6      -1.3157    2.2881    5.1046 H       1  LIG   0.2158   0.1500 
28    H7       0.2777    3.7199    8.2918 H       1  LIG   0.0500   0.0600 
29    H8      -0.6838    7.0776    2.7575 H       1  LIG   0.1056   0.0000 
30    H9      -1.3081    5.6344    1.9434 H       1  LIG   0.1054   0.0000 
31    H10     -3.5541    5.9917    3.0534 H       1  LIG   0.0807   0.0000 
32    H11     -2.9362    7.4199    3.8582 H       1  LIG   0.0803   0.0000 
33    H12     -2.5414    8.5238    1.6154 H       1  LIG   0.1054   0.0000 
34    H13     -3.1666    7.0803    0.8026 H       1  LIG   0.1052   0.0000 
35    H14     -3.9253    9.8947    2.8509 H       1  LIG   0.2036   0.1500 
36    H15     -6.2242   10.8267    3.1396 H       1  LIG   0.2159   0.1500 
37    H16     -7.7539    7.3091    1.1513 H       1  LIG   0.2075   0.1500 
38    H17     -5.3956    6.5042    0.9351 H       1  LIG   0.2036   0.1500 
39    H18     -9.3395    8.9647    1.8846 H       1  LIG   0.0501   0.0600 
@<TRIPOS>BOND
1     1     6     ar
2     1     2     ar
3     1     24    1
4     2     3     ar
5     2     25    1
6     3     4     ar
7     3     10    1
8     4     5     ar
9     4     26    1
10    5     6     ar
11    5     27    1
12    6     7     1
13    7     8     2
14    7     28    1
15    8     9     1
16    9     22    1
17    10    11    1
18    10    29    1
19    10    30    1
20    11    12    1
21    11    31    1
22    11    32    1
23    12    13    1
24    12    33    1
25    12    34    1
26    13    18    ar
27    13    14    ar
28    14    15    ar
29    14    35    1
30    15    16    ar
31    15    36    1
32    16    17    ar
33    16    19    1
34    17    18    ar
35    17    37    1
36    18    38    1
37    19    20    2
38    19    39    1
39    20    21    1
40    21    23    1
@<TRIPOS>SUBSTRUCTURE
1   LIG    1    
 
########## Number      : 574
########## Name        : ZINC00002226
########## Description : AM1BCC_CHARGES =  -0.0002 ORIGINAL_CHARGES =  -0.0000

@<TRIPOS>MOLECULE
ZINC00002226
29    31    1     0     0    
SMALL
USER_CHARGES
****
****
@<TRIPOS>ATOM
1     C1      -7.2556    8.2174   -0.7520 C.3     1  LIG  -0.0746   0.1382 
2     C2      -7.0099    8.0706    0.7221 C.2     1  LIG   0.0510  -0.1666 
3     C3      -7.4878    8.9725    1.5907 C.2     1  LIG  -0.2674  -0.1356 
4     C4      -7.2776    8.8783    3.0423 C.2     1  LIG   0.7230   0.7056 
5     O1      -7.7298    9.7223    3.8075 O.2     1  LIG  -0.5682  -0.5700 
6     O2      -6.5463    7.7914    3.4895 O.3     1  LIG  -0.3241  -0.2325 
7     C5      -6.0202    6.8110    2.6085 C.ar    1  LIG   0.1590   0.0825 
8     C6      -6.2357    6.9254    1.2287 C.ar    1  LIG  -0.1577   0.0284 
9     C7      -5.7011    5.9372    0.3833 C.ar    1  LIG  -0.0403  -0.1500 
10    C8      -4.9698    4.8676    0.9358 C.ar    1  LIG  -0.1217   0.0000 
11    C9      -4.3051    3.7263    0.4127 C.2     1  LIG  -0.1750  -0.1500 
12    C10     -3.7707    3.0558    1.4907 C.2     1  LIG   0.0457  -0.0400 
13    O3      -4.0641    3.7123    2.6470 O.3     1  LIG  -0.2024  -0.2800 
14    C11     -4.7942    4.8162    2.3133 C.ar    1  LIG   0.1011   0.1400 
15    C12     -5.2959    5.7610    3.2133 C.ar    1  LIG  -0.0831  -0.1435 
16    C13     -5.0953    5.6871    4.6947 C.3     1  LIG  -0.0423   0.1435 
17    C14     -2.9779    1.8198    1.6261 C.3     1  LIG  -0.0428   0.1800 
18    H1      -7.8438    9.1132   -0.9813 H       1  LIG   0.0552   0.0000 
19    H2      -6.3099    8.3053   -1.2974 H       1  LIG   0.0599   0.0000 
20    H3      -7.8127    7.3585   -1.1412 H       1  LIG   0.0602   0.0000 
21    H4      -8.0625    9.8289    1.2522 H       1  LIG   0.1684   0.1500 
22    H5      -5.8364    5.9744   -0.6933 H       1  LIG   0.1454   0.1500 
23    H6      -4.2266    3.4305   -0.6242 H       1  LIG   0.1665   0.1500 
24    H7      -4.5109    4.8060    4.9774 H       1  LIG   0.0534   0.0000 
25    H8      -4.5582    6.5728    5.0487 H       1  LIG   0.0593   0.0000 
26    H9      -6.0618    5.6256    5.2050 H       1  LIG   0.0598   0.0000 
27    H10     -2.0112    2.0339    2.0920 H       1  LIG   0.0658   0.0000 
28    H11     -3.5075    1.0912    2.2475 H       1  LIG   0.0658   0.0000 
29    H12     -2.7917    1.3630    0.6493 H       1  LIG   0.0599   0.0000 
@<TRIPOS>BOND
1     1     2     1
2     1     18    1
3     1     19    1
4     1     20    1
5     2     8     1
6     2     3     2
7     3     4     1
8     3     21    1
9     4     5     2
10    4     6     1
11    6     7     1
12    7     15    ar
13    7     8     ar
14    8     9     ar
15    9     10    ar
16    9     22    1
17    10    14    ar
18    10    11    1
19    11    12    2
20    11    23    1
21    12    13    1
22    12    17    1
23    13    14    1
24    14    15    ar
25    15    16    1
26    16    24    1
27    16    25    1
28    16    26    1
29    17    27    1
30    17    28    1
31    17    29    1
@<TRIPOS>SUBSTRUCTURE
1   LIG    1    
 
########## Number      : 575
########## Name        : ZINC00002230
########## Description : AM1BCC_CHARGES =   0.9999 ORIGINAL_CHARGES =   1.0000

@<TRIPOS>MOLECULE
ZINC00002230
38    40    1     0     0    
SMALL
USER_CHARGES
****
****
@<TRIPOS>ATOM
1     C1       6.0400   -7.1399   -0.1579 C.3     1  LIG   0.0869   0.5030 
2     C2       4.0091   -7.8280    1.2470 C.3     1  LIG   0.1464   0.5030 
3     C3       2.6299   -8.4313    0.9211 C.3     1  LIG  -0.1093   0.0000 
4     C4       2.3494   -7.9799   -0.5251 C.3     1  LIG  -0.1083   0.0000 
5     C5       3.5896   -7.1529   -0.9123 C.3     1  LIG   0.1425   0.5030 
6     C6       3.3965   -5.6703   -0.5462 C.3     1  LIG  -0.1086   0.0000 
7     C7       3.0680   -5.4662    0.9421 C.3     1  LIG   0.1486   0.2800 
8     C8       3.8618   -6.4200    1.8519 C.3     1  LIG  -0.1349   0.0000 
9     O1       3.3612   -4.0950    1.2775 O.3     1  LIG  -0.4499  -0.4300 
10    C9       2.7375   -3.5718    2.3633 C.2     1  LIG   0.6631   0.6338 
11    O2       1.9439   -4.1484    3.0900 O.2     1  LIG  -0.5385  -0.5700 
12    C10      3.1562   -2.1620    2.5684 C.ar    1  LIG  -0.1543   0.0862 
13    C11      4.0610   -1.5155    1.7161 C.ar    1  LIG  -0.0699  -0.1500 
14    C12      4.4211   -0.1873    1.9555 C.ar    1  LIG  -0.1434  -0.1500 
15    C13      3.8831    0.5006    3.0418 C.ar    1  LIG  -0.0758  -0.1500 
16    C14      2.9828   -0.1376    3.8924 C.ar    1  LIG  -0.1383  -0.1500 
17    C15      2.6187   -1.4650    3.6586 C.ar    1  LIG  -0.0622  -0.1500 
18    H1       6.3718   -7.2056   -1.1973 H       1  LIG   0.0990   0.0000 
19    H2       6.0226   -6.1000    0.1713 H       1  LIG   0.1148   0.0000 
20    H3       6.6982   -7.7321    0.4830 H       1  LIG   0.1002   0.0000 
21    H4       4.5615   -8.4761    1.9438 H       1  LIG   0.1137   0.0000 
22    H5       2.6784   -9.5261    0.9557 H       1  LIG   0.0834   0.0000 
23    H6       1.8463   -8.1128    1.6158 H       1  LIG   0.1090   0.0000 
24    H7       2.2674   -8.8626   -1.1702 H       1  LIG   0.0836   0.0000 
25    H8       1.4137   -7.4187   -0.6121 H       1  LIG   0.1040   0.0000 
26    H9       3.7975   -7.2457   -1.9888 H       1  LIG   0.1131   0.0000 
27    H10      4.2852   -5.0897   -0.8223 H       1  LIG   0.0859   0.0000 
28    H11      2.5844   -5.2411   -1.1474 H       1  LIG   0.1041   0.0000 
29    H12      1.9924   -5.6411    1.0769 H       1  LIG   0.0916   0.0000 
30    H13      3.3564   -6.4909    2.8234 H       1  LIG   0.1195   0.0000 
31    H14      4.8471   -5.9944    2.0780 H       1  LIG   0.0815   0.0000 
32    H15      4.4992   -2.0209    0.8599 H       1  LIG   0.1423   0.1500 
33    H16      5.1228    0.3114    1.2926 H       1  LIG   0.1482   0.1500 
34    H17      4.1653    1.5335    3.2249 H       1  LIG   0.1508   0.1500 
35    H18      2.5631    0.3985    4.7391 H       1  LIG   0.1539   0.1500 
36    H19      1.9144   -1.9407    4.3367 H       1  LIG   0.1610   0.1500 
37    N1       4.6751   -7.7394   -0.0806 N.4     1  LIG  -0.7000  -0.9590 
38    H20      4.8023   -8.7078   -0.4080 H       1  LIG   0.4462   0.4500 
@<TRIPOS>BOND
1     1     18    1
2     1     19    1
3     1     20    1
4     1     37    1
5     2     8     1
6     2     3     1
7     2     21    1
8     2     37    1
9     3     4     1
10    3     22    1
11    3     23    1
12    4     5     1
13    4     24    1
14    4     25    1
15    5     6     1
16    5     26    1
17    5     37    1
18    6     7     1
19    6     27    1
20    6     28    1
21    7     8     1
22    7     9     1
23    7     29    1
24    8     30    1
25    8     31    1
26    9     10    1
27    10    11    2
28    10    12    1
29    12    17    ar
30    12    13    ar
31    13    14    ar
32    13    32    1
33    14    15    ar
34    14    33    1
35    15    16    ar
36    15    34    1
37    16    17    ar
38    16    35    1
39    17    36    1
40    37    38    1
@<TRIPOS>SUBSTRUCTURE
1   LIG    1    
 
########## Number      : 576
########## Name        : ZINC00002233
########## Description : AM1BCC_CHARGES =   0.9998 ORIGINAL_CHARGES =   1.0000

@<TRIPOS>MOLECULE
ZINC00002233
22    22    1     0     0    
SMALL
USER_CHARGES
****
****
@<TRIPOS>ATOM
1     C1       4.7365   -8.3444   -0.4878 C.ar    1  LIG  -0.0683  -0.1500 
2     C2       3.5982   -7.7136    0.0172 C.ar    1  LIG  -0.2101  -0.1500 
3     C3       2.3718   -7.9024   -0.6150 C.ar    1  LIG   0.1664   0.0825 
4     C4       2.2691   -8.7126   -1.7417 C.ar    1  LIG  -0.1492  -0.1500 
5     C5       3.4082   -9.3422   -2.2450 C.ar    1  LIG  -0.0784  -0.1500 
6     C6       4.6530   -9.1598   -1.6258 C.ar    1  LIG  -0.1824  -0.1435 
7     C7       5.8791   -9.8562   -2.1577 C.3     1  LIG  -0.0370   0.1435 
8     C8       6.0526  -11.2295   -1.5233 C.3     1  LIG   0.0953   0.5030 
9     O1       1.2377   -7.3011   -0.1477 O.3     1  LIG  -0.4748  -0.5325 
10    H1       7.4114  -12.8066   -1.6654 H       1  LIG   0.4620   0.4500 
11    H2       7.2031  -11.9979   -3.0963 H       1  LIG   0.4587   0.4500 
12    H3       1.4671   -6.7706    0.6344 H       1  LIG   0.4361   0.4500 
13    H4       5.6901   -8.1949    0.0129 H       1  LIG   0.1330   0.1500 
14    H5       3.6819   -7.0837    0.8980 H       1  LIG   0.1536   0.1500 
15    H6       1.3097   -8.8583   -2.2300 H       1  LIG   0.1710   0.1500 
16    H7       3.3179   -9.9757   -3.1241 H       1  LIG   0.1343   0.1500 
17    H8       5.8030   -9.9453   -3.2492 H       1  LIG   0.0699   0.0000 
18    H9       6.7632   -9.2332   -1.9698 H       1  LIG   0.0692   0.0000 
19    H10      6.1913  -11.1701   -0.4391 H       1  LIG   0.1155   0.0000 
20    H11      5.2125  -11.8961   -1.7427 H       1  LIG   0.1167   0.0000 
21    N1       7.2683  -11.8747   -2.0769 N.4     1  LIG  -0.8401  -0.8530 
22    H12      8.1143  -11.3223   -1.8829 H       1  LIG   0.4584   0.4500 
@<TRIPOS>BOND
1     1     6     ar
2     1     2     ar
3     1     13    1
4     2     3     ar
5     2     14    1
6     3     4     ar
7     3     9     1
8     4     5     ar
9     4     15    1
10    5     6     ar
11    5     16    1
12    6     7     1
13    7     8     1
14    7     17    1
15    7     18    1
16    8     19    1
17    8     20    1
18    8     21    1
19    9     12    1
20    10    21    1
21    11    21    1
22    21    22    1
@<TRIPOS>SUBSTRUCTURE
1   LIG    1    
 
########## Number      : 577
########## Name        : ZINC00002234
########## Description : AM1BCC_CHARGES =   0.0001 ORIGINAL_CHARGES =  -0.0000

@<TRIPOS>MOLECULE
ZINC00002234
24    24    1     0     0    
SMALL
USER_CHARGES
****
****
@<TRIPOS>ATOM
1     C1       2.3791   -7.1795   -0.2432 C.ar    1  LIG  -0.0602  -0.1500 
2     C2       1.8723   -8.2628   -0.9620 C.ar    1  LIG  -0.1493  -0.1500 
3     C3       0.4968   -8.3991   -1.1223 C.ar    1  LIG   0.1329   0.0825 
4     C4      -0.3801   -7.4663   -0.5743 C.ar    1  LIG  -0.2134  -0.1500 
5     C5       0.1293   -6.3834    0.1442 C.ar    1  LIG  -0.0855  -0.1500 
6     C6       1.5127   -6.2309    0.3186 C.ar    1  LIG  -0.1157  -0.1435 
7     C7       2.0610   -5.0511    1.0865 C.3     1  LIG  -0.0240   0.1435 
8     C8       2.0902   -3.7523    0.2612 C.3     1  LIG  -0.0739   0.3970 
9     C9       3.1553   -3.8722   -0.8456 C.2     1  LIG   0.9327   0.9060 
10    O1       4.3512   -3.9085   -0.4375 O.co2   1  LIG  -0.8085  -0.9000 
11    O2       0.0328   -9.4707   -1.8316 O.3     1  LIG  -0.4956  -0.5325 
12    H1       2.4011   -1.7289    0.6758 H       1  LIG   0.4346   0.4500 
13    H2       1.7313   -2.5512    1.9533 H       1  LIG   0.4120   0.4500 
14    H3      -0.9380   -9.4250   -1.8619 H       1  LIG   0.4180   0.4500 
15    H4       3.4557   -7.0779   -0.1281 H       1  LIG   0.1494   0.1500 
16    H5       2.5528   -8.9910   -1.3939 H       1  LIG   0.1548   0.1500 
17    H6      -1.4541   -7.5682   -0.6985 H       1  LIG   0.1318   0.1500 
18    H7      -0.5605   -5.6576    0.5680 H       1  LIG   0.1191   0.1500 
19    H8       1.4367   -4.9125    1.9799 H       1  LIG   0.0224   0.0000 
20    H9       3.0618   -5.2959    1.4669 H       1  LIG   0.0736   0.0000 
21    H10      1.0940   -3.5844   -0.1818 H       1  LIG   0.0950   0.0000 
22    O3       2.6993   -3.8896   -2.0226 O.co2   1  LIG  -0.6992  -0.9000 
23    N1       2.4061   -2.6245    1.1816 N.4     1  LIG  -0.8322  -0.8530 
24    H11      3.3468   -2.7375    1.5852 H       1  LIG   0.4813   0.4500 
@<TRIPOS>BOND
1     1     6     ar
2     1     2     ar
3     1     15    1
4     2     3     ar
5     2     16    1
6     3     4     ar
7     3     11    1
8     4     5     ar
9     4     17    1
10    5     6     ar
11    5     18    1
12    6     7     1
13    7     8     1
14    7     19    1
15    7     20    1
16    8     9     1
17    8     21    1
18    8     23    1
19    9     10    2
20    9     22    1
21    11    14    1
22    12    23    1
23    13    23    1
24    23    24    1
@<TRIPOS>SUBSTRUCTURE
1   LIG    1    
 
########## Number      : 578
########## Name        : ZINC00002235
########## Description : AM1BCC_CHARGES =  -0.0000 ORIGINAL_CHARGES =   0.0000

@<TRIPOS>MOLECULE
ZINC00002235
26    26    1     0     0    
SMALL
USER_CHARGES
****
****
@<TRIPOS>ATOM
1     C1       3.7132   -5.2912    0.0136 C.2     1  LIG  -0.0183  -0.0410 
2     C2       2.3898   -5.2102   -0.2097 C.2     1  LIG  -0.0377   0.1144 
3     C3       1.7641   -6.4049   -0.8888 C.2     1  LIG   0.7151   0.6156 
4     O1       0.6095   -6.3966   -1.3098 O.2     1  LIG  -0.5965  -0.5700 
5     N1       2.5910   -7.5021   -1.0677 N.am    1  LIG  -0.5835  -0.4900 
6     C4       3.9516   -7.5528   -0.8059 C.2     1  LIG   0.8017   0.6900 
7     O2       4.6382   -8.5452   -1.0441 O.2     1  LIG  -0.6343  -0.5700 
8     N2       4.4702   -6.3940   -0.2692 N.am    1  LIG  -0.4640  -0.5390 
9     N3       1.5857   -4.0981    0.0833 N.pl3   1  LIG  -0.6508  -0.8382 
10    C5       0.2621   -4.2201    0.7214 C.3     1  LIG   0.1918   0.3691 
11    C6       0.4077   -4.1889    2.2404 C.3     1  LIG  -0.0077   0.2900 
12    Cl1     -1.1856   -4.3045    3.0220 Cl      1  LIG  -0.1746  -0.2900 
13    C7       2.0862   -2.7157   -0.0486 C.3     1  LIG   0.1956   0.3691 
14    C8       2.1834   -2.3298   -1.5205 C.3     1  LIG   0.0247   0.2900 
15    Cl2      2.7479   -0.6516   -1.6871 Cl      1  LIG  -0.1911  -0.2900 
16    H1       2.1769   -8.3234   -1.4954 H       1  LIG   0.3577   0.3700 
17    H2       5.4627   -6.3643   -0.0572 H       1  LIG   0.3575   0.3700 
18    H3       4.2712   -4.4818    0.4695 H       1  LIG   0.1644   0.1500 
19    H4      -0.3858   -3.4017    0.3820 H       1  LIG   0.0708   0.0000 
20    H5      -0.2486   -5.1423    0.4320 H       1  LIG   0.0972   0.0000 
21    H6       1.0156   -5.0267    2.5961 H       1  LIG   0.0669   0.0000 
22    H7       0.8770   -3.2606    2.5800 H       1  LIG   0.0610   0.0000 
23    H8       1.4124   -2.0158    0.4623 H       1  LIG   0.0667   0.0000 
24    H9       3.0566   -2.6080    0.4493 H       1  LIG   0.0323   0.0000 
25    H10      2.8880   -2.9702   -2.0596 H       1  LIG   0.0727   0.0000 
26    H11      1.2085   -2.4063   -2.0125 H       1  LIG   0.0824   0.0000 
@<TRIPOS>BOND
1     1     8     1
2     1     2     2
3     1     18    1
4     2     3     1
5     2     9     1
6     3     4     2
7     3     5     am
8     5     6     am
9     5     16    1
10    6     7     2
11    6     8     am
12    8     17    1
13    9     10    1
14    9     13    1
15    10    11    1
16    10    19    1
17    10    20    1
18    11    12    1
19    11    21    1
20    11    22    1
21    13    14    1
22    13    23    1
23    13    24    1
24    14    15    1
25    14    25    1
26    14    26    1
@<TRIPOS>SUBSTRUCTURE
1   LIG    1    
 
########## Number      : 579
########## Name        : ZINC00002244
########## Description : AM1BCC_CHARGES =   0.9999 ORIGINAL_CHARGES =   1.0000

@<TRIPOS>MOLECULE
ZINC00002244
38    40    1     0     0    
SMALL
USER_CHARGES
****
****
@<TRIPOS>ATOM
1     C1       6.0194   -5.8588   -1.7843 C.3     1  LIG   0.0756   0.3001 
2     N1       5.4466   -5.6675   -0.4582 N.am    1  LIG  -0.4032  -0.4231 
3     C2       6.2780   -5.4409    0.6270 C.2     1  LIG   0.5404   0.2902 
4     C3       5.7919   -5.2528    1.8947 C.2     1  LIG  -0.3885  -0.2366 
5     C4       4.3968   -5.2655    2.2148 C.2     1  LIG   0.7669   0.7150 
6     O1       3.9616   -5.0717    3.3463 O.2     1  LIG  -0.6725  -0.5700 
7     N2       3.5916   -5.5131    1.0764 N.am    1  LIG  -0.4658  -0.4201 
8     C5       4.0493   -5.7128   -0.2677 C.2     1  LIG   0.8076   0.6900 
9     O2       3.2614   -5.9100   -1.1990 O.2     1  LIG  -0.5747  -0.5700 
10    C6       2.1467   -5.5608    1.2661 C.3     1  LIG   0.0721   0.3001 
11    N3       6.9068   -5.0612    2.6661 N.pl3   1  LIG  -0.2397   0.0476 
12    C7       7.9949   -5.1517    1.8341 C.2     1  LIG   0.4856   0.0365 
13    N4       7.6424   -5.3749    0.5867 N.2     1  LIG  -0.6320  -0.5653 
14    C8       6.9848   -4.8510    4.0965 C.3     1  LIG   0.2601   0.7586 
15    C9       7.6143   -3.2738    5.9300 C.3     1  LIG   0.0704   0.5030 
16    C10      7.8958   -1.8102    6.2339 C.3     1  LIG   0.1016   0.2800 
17    O3       6.7493   -1.0085    5.9473 O.3     1  LIG  -0.3697  -0.5600 
18    C11      6.4055   -1.0749    4.5628 C.3     1  LIG   0.0975   0.2800 
19    C12      6.0449   -2.4991    4.1651 C.3     1  LIG   0.0633   0.5030 
20    H1       5.2452   -6.0261   -2.5374 H       1  LIG   0.1030   0.0000 
21    H2       6.5896   -4.9656   -2.0579 H       1  LIG   0.0629   0.0000 
22    H3       6.6836   -6.7283   -1.7631 H       1  LIG   0.0718   0.0000 
23    H4       1.8582   -5.4404    2.3128 H       1  LIG   0.0864   0.0000 
24    H5       1.6893   -4.7631    0.6721 H       1  LIG   0.0740   0.0000 
25    H6       1.7723   -6.5215    0.8983 H       1  LIG   0.0713   0.0000 
26    H7       9.0113   -5.0486    2.1905 H       1  LIG   0.0849   0.1500 
27    H8       7.8366   -5.4326    4.4668 H       1  LIG   0.1116   0.0000 
28    H9       6.0738   -5.1958    4.5916 H       1  LIG   0.1596   0.0000 
29    H10      6.7733   -3.6543    6.5201 H       1  LIG   0.1203   0.0000 
30    H11      8.5039   -3.8895    6.0939 H       1  LIG   0.1024   0.0000 
31    H12      8.1264   -1.6913    7.2972 H       1  LIG   0.1287   0.0000 
32    H13      8.7560   -1.4376    5.6651 H       1  LIG   0.0628   0.0000 
33    H14      5.5447   -0.4180    4.4031 H       1  LIG   0.1311   0.0000 
34    H15      7.2347   -0.6857    3.9600 H       1  LIG   0.0610   0.0000 
35    H16      5.8363   -2.5585    3.0939 H       1  LIG   0.1140   0.0000 
36    H17      5.1950   -2.8748    4.7446 H       1  LIG   0.1451   0.0000 
37    N5       7.2240   -3.4033    4.4697 N.4     1  LIG  -0.7211  -0.9590 
38    H18      8.0232   -3.0723    3.9117 H       1  LIG   0.4351   0.4500 
@<TRIPOS>BOND
1     1     2     1
2     1     20    1
3     1     21    1
4     1     22    1
5     2     8     am
6     2     3     1
7     3     13    1
8     3     4     2
9     4     5     1
10    4     11    1
11    5     6     2
12    5     7     am
13    7     8     am
14    7     10    1
15    8     9     2
16    10    23    1
17    10    24    1
18    10    25    1
19    11    12    1
20    11    14    1
21    12    13    2
22    12    26    1
23    14    27    1
24    14    28    1
25    14    37    1
26    15    16    1
27    15    29    1
28    15    30    1
29    15    37    1
30    16    17    1
31    16    31    1
32    16    32    1
33    17    18    1
34    18    19    1
35    18    33    1
36    18    34    1
37    19    35    1
38    19    36    1
39    19    37    1
40    37    38    1
@<TRIPOS>SUBSTRUCTURE
1   LIG    1    
 
########## Number      : 580
########## Name        : ZINC00002265
########## Description : AM1BCC_CHARGES =   0.0000 ORIGINAL_CHARGES =   0.0000

@<TRIPOS>MOLECULE
ZINC00002265
16    17    1     0     0    
SMALL
USER_CHARGES
****
****
@<TRIPOS>ATOM
1     C1      -0.9079    4.9185    9.5574 C.ar    1  LIG  -0.1290  -0.1500 
2     C2      -1.1066    6.0197    8.7169 C.ar    1  LIG  -0.0947  -0.1500 
3     C3       0.0469    6.6415    8.2556 C.ar    1  LIG   0.0130   0.1400 
4     C4       1.3369    6.2474    8.5694 C.ar    1  LIG   0.1079   0.2272 
5     C5       1.5261    5.1429    9.4123 C.ar    1  LIG  -0.0892  -0.1500 
6     C6       0.3824    4.4909    9.8966 C.ar    1  LIG   0.0151   0.1770 
7     Cl1      0.5722    3.1277   10.9365 Cl      1  LIG  -0.0946  -0.1770 
8     N1       2.2363    7.0775    7.9469 N.2     1  LIG  -0.6316  -0.5653 
9     C7       1.4792    7.9333    7.2873 C.2     1  LIG   0.7729   0.5621 
10    O1       0.1317    7.7252    7.4315 O.3     1  LIG  -0.3357  -0.2800 
11    N2       1.8375    8.9622    6.5077 N.pl3   1  LIG  -0.9288  -0.8840 
12    H1       2.8113    9.1917    6.3433 H       1  LIG   0.4654   0.4000 
13    H2       1.1506    9.5520    6.0514 H       1  LIG   0.4573   0.4000 
14    H3      -1.7787    4.3950    9.9467 H       1  LIG   0.1514   0.1500 
15    H4      -2.0965    6.3640    8.4443 H       1  LIG   0.1545   0.1500 
16    H5       2.5254    4.8119    9.6748 H       1  LIG   0.1661   0.1500 
@<TRIPOS>BOND
1     1     6     ar
2     1     2     ar
3     1     14    1
4     2     3     ar
5     2     15    1
6     3     10    1
7     3     4     ar
8     4     5     ar
9     4     8     1
10    5     6     ar
11    5     16    1
12    6     7     1
13    8     9     2
14    9     10    1
15    9     11    1
16    11    12    1
17    11    13    1
@<TRIPOS>SUBSTRUCTURE
1   LIG    1    
 
########## Number      : 581
########## Name        : ZINC00002285
########## Description : AM1BCC_CHARGES =   0.0002 ORIGINAL_CHARGES =   0.0000

@<TRIPOS>MOLECULE
ZINC00002285
49    52    1     0     0    
SMALL
USER_CHARGES
****
****
@<TRIPOS>ATOM
1     C1       5.8106    0.8098   -5.4614 C.3     1  LIG  -0.0842   0.0000 
2     C2       5.5475   -0.6979   -5.1573 C.3     1  LIG  -0.0630   0.0000 
3     C3       5.5631   -0.9182   -3.6185 C.3     1  LIG  -0.0727   0.0000 
4     C4       4.1617   -0.9003   -2.9638 C.3     1  LIG  -0.0673   0.0000 
5     C5       3.2066    0.0558   -3.7076 C.3     1  LIG  -0.0836   0.0000 
6     C6       2.9483   -0.4950   -5.1338 C.3     1  LIG  -0.0454   0.0000 
7     C7       4.1997   -1.1955   -5.7075 C.3     1  LIG  -0.0587   0.0000 
8     C8       4.4360   -1.2287   -7.2192 C.3     1  LIG  -0.0787   0.0000 
9     C9       5.9308   -1.6226   -7.3681 C.3     1  LIG  -0.1090   0.0000 
10    C10      6.5566   -1.5802   -5.9424 C.3     1  LIG   0.2383   0.4800 
11    C11      7.9427   -1.0918   -5.9576 C.1     1  LIG  -0.1210  -0.2000 
12    C12      9.0791   -0.7036   -5.9710 C.1     1  LIG  -0.1326  -0.1770 
13    O1       6.5790   -2.9095   -5.4121 O.3     1  LIG  -0.5831  -0.6800 
14    C13      2.3049    0.6286   -5.9526 C.3     1  LIG  -0.0732   0.0000 
15    C14      0.9499    0.9965   -5.3327 C.3     1  LIG  -0.0557   0.1382 
16    C15      0.9921    1.2287   -3.8331 C.2     1  LIG  -0.0853  -0.2764 
17    C16      0.2860    2.2463   -3.3112 C.2     1  LIG  -0.2323  -0.1356 
18    C17      0.1944    2.4449   -1.8462 C.2     1  LIG   0.5655   0.4946 
19    O2      -0.4199    3.4097   -1.3967 O.2     1  LIG  -0.5299  -0.5700 
20    C18      0.7926    1.3912   -0.9518 C.3     1  LIG  -0.1805   0.0610 
21    C19      2.0716    0.8437   -1.5679 C.3     1  LIG  -0.0642   0.0000 
22    C20      1.8447    0.2742   -2.9846 C.3     1  LIG   0.1906   0.4182 
23    O3       1.1637   -0.9756   -2.8418 O.3     1  LIG  -0.5872  -0.6800 
24    H1       5.7599   -3.3673   -5.6609 H       1  LIG   0.4044   0.4000 
25    H2       0.6208   -1.1371   -3.6306 H       1  LIG   0.4029   0.4000 
26    H3       5.9073    1.0029   -6.5351 H       1  LIG   0.0383   0.0000 
27    H4       5.0382    1.4854   -5.1021 H       1  LIG   0.0378   0.0000 
28    H5       6.7448    1.1430   -4.9942 H       1  LIG   0.0464   0.0000 
29    H6       6.0376   -1.8671   -3.3450 H       1  LIG   0.0635   0.0000 
30    H7       6.1820   -0.1463   -3.1429 H       1  LIG   0.0484   0.0000 
31    H8       3.7474   -1.9164   -2.9618 H       1  LIG   0.0486   0.0000 
32    H9       4.2891   -0.6132   -1.9155 H       1  LIG   0.0476   0.0000 
33    H10      3.7457    1.0147   -3.7332 H       1  LIG   0.0643   0.0000 
34    H11      2.1833   -1.2944   -5.1348 H       1  LIG   0.0380   0.0000 
35    H12      4.0215   -2.2565   -5.4402 H       1  LIG   0.0378   0.0000 
36    H13      3.7813   -1.9500   -7.7187 H       1  LIG   0.0467   0.0000 
37    H14      4.2709   -0.2516   -7.6849 H       1  LIG   0.0507   0.0000 
38    H15      6.0129   -2.6214   -7.8125 H       1  LIG   0.0600   0.0000 
39    H16      6.4144   -0.9164   -8.0540 H       1  LIG   0.0628   0.0000 
40    H17     10.0870   -0.3600   -5.9821 H       1  LIG   0.1663   0.1770 
41    H18      2.9504    1.5123   -5.9933 H       1  LIG   0.0545   0.0000 
42    H19      2.1331    0.3061   -6.9855 H       1  LIG   0.0494   0.0000 
43    H20      0.5550    1.8747   -5.8585 H       1  LIG   0.0592   0.0000 
44    H21      0.2428    0.1790   -5.5261 H       1  LIG   0.0522   0.0000 
45    H22     -0.2944    2.9235   -3.9286 H       1  LIG   0.1481   0.1500 
46    H23      1.0234    1.8448    0.0182 H       1  LIG   0.0750   0.0000 
47    H24      0.0505    0.6011   -0.7956 H       1  LIG   0.0871   0.0000 
48    H25      2.8183    1.6483   -1.6017 H       1  LIG   0.0546   0.0000 
49    H26      2.4518    0.0650   -0.8963 H       1  LIG   0.0688   0.0000 
@<TRIPOS>BOND
1     1     2     1
2     1     26    1
3     1     27    1
4     1     28    1
5     2     7     1
6     2     10    1
7     2     3     1
8     3     4     1
9     3     29    1
10    3     30    1
11    4     5     1
12    4     31    1
13    4     32    1
14    5     22    1
15    5     6     1
16    5     33    1
17    6     7     1
18    6     14    1
19    6     34    1
20    7     8     1
21    7     35    1
22    8     9     1
23    8     36    1
24    8     37    1
25    9     10    1
26    9     38    1
27    9     39    1
28    10    11    1
29    10    13    1
30    11    12    3
31    12    40    1
32    13    24    1
33    14    15    1
34    14    41    1
35    14    42    1
36    15    16    1
37    15    43    1
38    15    44    1
39    16    22    1
40    16    17    2
41    17    18    1
42    17    45    1
43    18    19    2
44    18    20    1
45    20    21    1
46    20    46    1
47    20    47    1
48    21    22    1
49    21    48    1
50    21    49    1
51    22    23    1
52    23    25    1
@<TRIPOS>SUBSTRUCTURE
1   LIG    1    
 
########## Number      : 582
########## Name        : ZINC00002288
########## Description : AM1BCC_CHARGES =   0.0004 ORIGINAL_CHARGES =   0.0000

@<TRIPOS>MOLECULE
ZINC00002288
55    58    1     0     0    
SMALL
USER_CHARGES
****
****
@<TRIPOS>ATOM
1     C1       5.5325    2.4821    1.0975 C.3     1  LIG  -0.0870   0.0000 
2     C2       5.0722    3.6195    0.1778 C.3     1  LIG  -0.1596   0.0610 
3     C3       4.9216    3.0992   -1.2581 C.3     1  LIG  -0.0741   0.0000 
4     C4       4.3657    4.1722   -2.2368 C.3     1  LIG  -0.0067   0.1382 
5     C5       4.0681    3.5786   -3.6741 C.3     1  LIG  -0.1553   0.0610 
6     C6       2.6485    2.9576   -3.7306 C.3     1  LIG  -0.0546   0.0000 
7     C7       1.5854    4.0720   -3.5136 C.3     1  LIG  -0.0698   0.0000 
8     C8       2.0685    5.2309   -2.6379 C.3     1  LIG  -0.0538   0.1382 
9     C9       3.0805    4.7411   -1.6413 C.2     1  LIG  -0.0349  -0.2764 
10    C10      2.8003    4.7372   -0.3289 C.2     1  LIG  -0.2540  -0.1356 
11    C11      3.7476    4.1758    0.6639 C.2     1  LIG   0.5691   0.4946 
12    O1       3.4485    4.2224    1.8566 O.2     1  LIG  -0.5333  -0.5700 
13    C12      2.4216    2.2412   -5.0803 C.3     1  LIG  -0.0604   0.0000 
14    C13      1.0553    1.5189   -5.1250 C.3     1  LIG  -0.0765   0.0000 
15    C14      1.3201    0.2094   -5.8525 C.3     1  LIG  -0.0772   0.0000 
16    C15      2.7126   -0.1845   -5.3459 C.3     1  LIG  -0.1620   0.0610 
17    C16      3.4962    1.1458   -5.3628 C.3     1  LIG  -0.0242   0.0000 
18    C17      4.6209    1.1323   -4.3162 C.3     1  LIG  -0.1768   0.0610 
19    C18      5.1085    2.5384   -4.0617 C.2     1  LIG   0.5813   0.4480 
20    O2       6.3019    2.8209   -4.1693 O.2     1  LIG  -0.5320  -0.5700 
21    C19      4.1213    1.4454   -6.7507 C.3     1  LIG  -0.0993   0.0000 
22    C20      3.3446   -1.2632   -6.2284 C.2     1  LIG   0.5747   0.4480 
23    O3       2.9515   -1.4996   -7.3713 O.2     1  LIG  -0.5283  -0.5700 
24    C21      4.5057   -2.0315   -5.6500 C.3     1  LIG  -0.2036   0.0610 
25    C22      5.3973    5.3147   -2.3996 C.3     1  LIG  -0.0931   0.0000 
26    H1       6.4706    2.0457    0.7390 H       1  LIG   0.0377   0.0000 
27    H2       5.7013    2.8474    2.1163 H       1  LIG   0.0603   0.0000 
28    H3       4.7820    1.6855    1.1524 H       1  LIG   0.0372   0.0000 
29    H4       5.8518    4.3945    0.2317 H       1  LIG   0.0790   0.0000 
30    H5       5.9029    2.7419   -1.5924 H       1  LIG   0.0633   0.0000 
31    H6       4.2547    2.2257   -1.2560 H       1  LIG   0.0454   0.0000 
32    H7       4.0679    4.3853   -4.4302 H       1  LIG   0.0833   0.0000 
33    H8       2.5027    2.2369   -2.9056 H       1  LIG   0.0588   0.0000 
34    H9       1.2532    4.4872   -4.4734 H       1  LIG   0.0476   0.0000 
35    H10      0.6953    3.6196   -3.0570 H       1  LIG   0.0496   0.0000 
36    H11      2.5275    6.0066   -3.2634 H       1  LIG   0.0575   0.0000 
37    H12      1.2062    5.7060   -2.1550 H       1  LIG   0.0571   0.0000 
38    H13      1.8630    5.1221    0.0585 H       1  LIG   0.1499   0.1500 
39    H14      2.4000    3.0046   -5.8785 H       1  LIG   0.0591   0.0000 
40    H15      0.6886    1.3030   -4.1143 H       1  LIG   0.0445   0.0000 
41    H16      0.2929    2.1176   -5.6337 H       1  LIG   0.0498   0.0000 
42    H17      0.5667   -0.5494   -5.6177 H       1  LIG   0.0503   0.0000 
43    H18      1.3020    0.3698   -6.9366 H       1  LIG   0.0720   0.0000 
44    H19      2.5727   -0.6038   -4.3348 H       1  LIG   0.0634   0.0000 
45    H20      4.2854    0.7155   -3.3596 H       1  LIG   0.0690   0.0000 
46    H21      5.4698    0.5246   -4.6461 H       1  LIG   0.0712   0.0000 
47    H22      3.3734    1.4007   -7.5498 H       1  LIG   0.0577   0.0000 
48    H23      4.5605    2.4495   -6.7784 H       1  LIG   0.0439   0.0000 
49    H24      4.9220    0.7410   -6.9994 H       1  LIG   0.0414   0.0000 
50    H25      4.5672   -3.0113   -6.1323 H       1  LIG   0.0703   0.0000 
51    H26      5.4350   -1.4861   -5.8232 H       1  LIG   0.0676   0.0000 
52    H27      4.3565   -2.1907   -4.5792 H       1  LIG   0.0573   0.0000 
53    H28      6.3791    4.9331   -2.6968 H       1  LIG   0.0662   0.0000 
54    H29      5.0776    6.0365   -3.1604 H       1  LIG   0.0382   0.0000 
55    H30      5.5337    5.8803   -1.4712 H       1  LIG   0.0432   0.0000 
@<TRIPOS>BOND
1     1     2     1
2     1     26    1
3     1     27    1
4     1     28    1
5     2     11    1
6     2     3     1
7     2     29    1
8     3     4     1
9     3     30    1
10    3     31    1
11    4     9     1
12    4     5     1
13    4     25    1
14    5     19    1
15    5     6     1
16    5     32    1
17    6     7     1
18    6     13    1
19    6     33    1
20    7     8     1
21    7     34    1
22    7     35    1
23    8     9     1
24    8     36    1
25    8     37    1
26    9     10    2
27    10    11    1
28    10    38    1
29    11    12    2
30    13    17    1
31    13    14    1
32    13    39    1
33    14    15    1
34    14    40    1
35    14    41    1
36    15    16    1
37    15    42    1
38    15    43    1
39    16    17    1
40    16    22    1
41    16    44    1
42    17    18    1
43    17    21    1
44    18    19    1
45    18    45    1
46    18    46    1
47    19    20    2
48    21    47    1
49    21    48    1
50    21    49    1
51    22    23    2
52    22    24    1
53    24    50    1
54    24    51    1
55    24    52    1
56    25    53    1
57    25    54    1
58    25    55    1
@<TRIPOS>SUBSTRUCTURE
1   LIG    1    
 
########## Number      : 583
########## Name        : ZINC00002289
########## Description : AM1BCC_CHARGES =   0.0001 ORIGINAL_CHARGES =  -0.0000

@<TRIPOS>MOLECULE
ZINC00002289
49    52    1     0     0    
SMALL
USER_CHARGES
****
****
@<TRIPOS>ATOM
1     C1       3.4769   -8.2549   -1.2264 C.3     1  LIG  -0.0854   0.0000 
2     C2       2.4562   -7.1258   -1.4024 C.3     1  LIG  -0.1632   0.0610 
3     C3       3.1594   -5.7713   -1.3811 C.3     1  LIG  -0.0695   0.0000 
4     C4       2.1660   -4.5948   -1.5409 C.3     1  LIG  -0.0341   0.1382 
5     C5       2.9124   -3.2857   -1.8863 C.3     1  LIG  -0.0575   0.0000 
6     C6       4.0079   -2.8969   -0.8795 C.3     1  LIG  -0.0687   0.0000 
7     C7       4.8126   -1.6664   -1.3633 C.3     1  LIG  -0.0635   0.0000 
8     C8       4.0101   -0.6856   -2.2638 C.3     1  LIG  -0.0790   0.0000 
9     C9       2.5303   -0.7570   -1.8541 C.3     1  LIG  -0.0555   0.0000 
10    C10      1.8711   -2.1533   -1.9683 C.3     1  LIG  -0.0477   0.0000 
11    C11      1.0388   -2.3725   -3.2384 C.3     1  LIG  -0.0700   0.0000 
12    C12      0.2988   -3.7156   -3.1199 C.3     1  LIG  -0.0551   0.1382 
13    C13      1.1658   -4.8753   -2.6595 C.2     1  LIG  -0.0324  -0.2764 
14    C14      1.0043   -6.0807   -3.2296 C.2     1  LIG  -0.2687  -0.1356 
15    C15      1.7291   -7.2699   -2.7210 C.2     1  LIG   0.5713   0.4946 
16    O1       1.6491   -8.3298   -3.3378 O.2     1  LIG  -0.5336  -0.5700 
17    C16      1.9163    0.4544   -2.5605 C.3     1  LIG  -0.0716   0.0000 
18    C17      3.0452    1.5151   -2.5438 C.3     1  LIG  -0.0799   0.0000 
19    C18      4.3325    0.8013   -2.0542 C.3     1  LIG   0.1412   0.2800 
20    O2       4.4943    1.0923   -0.6717 O.3     1  LIG  -0.5950  -0.6800 
21    C19      4.2734   -1.0298   -3.7560 C.3     1  LIG  -0.0862   0.0000 
22    H1       5.4265    0.9317   -0.4470 H       1  LIG   0.3986   0.4000 
23    H2       4.0291   -8.1386   -0.2879 H       1  LIG   0.0334   0.0000 
24    H3       2.9790   -9.2305   -1.2035 H       1  LIG   0.0560   0.0000 
25    H4       4.2003   -8.2716   -2.0493 H       1  LIG   0.0417   0.0000 
26    H5       1.7503   -7.2087   -0.5611 H       1  LIG   0.0720   0.0000 
27    H6       3.7008   -5.6663   -0.4331 H       1  LIG   0.0502   0.0000 
28    H7       3.9107   -5.7334   -2.1827 H       1  LIG   0.0528   0.0000 
29    H8       1.6518   -4.4970   -0.5698 H       1  LIG   0.0645   0.0000 
30    H9       3.4505   -3.4223   -2.8341 H       1  LIG   0.0590   0.0000 
31    H10      3.5522   -2.6760    0.0943 H       1  LIG   0.0436   0.0000 
32    H11      4.7178   -3.7134   -0.7141 H       1  LIG   0.0422   0.0000 
33    H12      5.2100   -1.1779   -0.4681 H       1  LIG   0.0414   0.0000 
34    H13      5.6982   -2.0181   -1.9090 H       1  LIG   0.0397   0.0000 
35    H14      2.4030   -0.5244   -0.7762 H       1  LIG   0.0593   0.0000 
36    H15      1.1318   -2.2334   -1.1461 H       1  LIG   0.0453   0.0000 
37    H16      0.2905   -1.5821   -3.3618 H       1  LIG   0.0476   0.0000 
38    H17      1.6713   -2.3713   -4.1330 H       1  LIG   0.0493   0.0000 
39    H18     -0.5117   -3.6008   -2.3876 H       1  LIG   0.0561   0.0000 
40    H19     -0.1815   -3.9351   -4.0813 H       1  LIG   0.0549   0.0000 
41    H20      0.3014   -6.2491   -4.0383 H       1  LIG   0.1474   0.1500 
42    H21      1.6388    0.2402   -3.5974 H       1  LIG   0.0418   0.0000 
43    H22      1.0204    0.8161   -2.0454 H       1  LIG   0.0469   0.0000 
44    H23      3.1838    1.9046   -3.5587 H       1  LIG   0.0456   0.0000 
45    H24      2.7755    2.3540   -1.8932 H       1  LIG   0.0675   0.0000 
46    H25      5.2081    1.1716   -2.6057 H       1  LIG   0.0362   0.0000 
47    H26      5.3309   -0.8583   -3.9934 H       1  LIG   0.0317   0.0000 
48    H27      4.0613   -2.0589   -4.0357 H       1  LIG   0.0420   0.0000 
49    H28      3.6967   -0.3956   -4.4368 H       1  LIG   0.0375   0.0000 
@<TRIPOS>BOND
1     1     2     1
2     1     23    1
3     1     24    1
4     1     25    1
5     2     15    1
6     2     3     1
7     2     26    1
8     3     4     1
9     3     27    1
10    3     28    1
11    4     13    1
12    4     5     1
13    4     29    1
14    5     10    1
15    5     6     1
16    5     30    1
17    6     7     1
18    6     31    1
19    6     32    1
20    7     8     1
21    7     33    1
22    7     34    1
23    8     19    1
24    8     9     1
25    8     21    1
26    9     10    1
27    9     17    1
28    9     35    1
29    10    11    1
30    10    36    1
31    11    12    1
32    11    37    1
33    11    38    1
34    12    13    1
35    12    39    1
36    12    40    1
37    13    14    2
38    14    15    1
39    14    41    1
40    15    16    2
41    17    18    1
42    17    42    1
43    17    43    1
44    18    19    1
45    18    44    1
46    18    45    1
47    19    20    1
48    19    46    1
49    20    22    1
50    21    47    1
51    21    48    1
52    21    49    1
@<TRIPOS>SUBSTRUCTURE
1   LIG    1    
 
########## Number      : 584
########## Name        : ZINC00002290
########## Description : AM1BCC_CHARGES =   0.0002 ORIGINAL_CHARGES =   0.0000

@<TRIPOS>MOLECULE
ZINC00002290
52    55    1     0     0    
SMALL
USER_CHARGES
****
****
@<TRIPOS>ATOM
1     C1       3.0074    7.5616    5.6920 C.3     1  LIG  -0.0863   0.0000 
2     C2       1.5861    8.1594    5.8677 C.3     1  LIG  -0.0364   0.0000 
3     C3       1.1952    8.8533    4.5271 C.3     1  LIG  -0.0702   0.0000 
4     C4       0.9878    7.8785    3.3651 C.3     1  LIG  -0.1064   0.0000 
5     C5       0.0286    6.7464    3.7131 C.3     1  LIG   0.1706   0.3400 
6     C6       0.4037    6.0603    5.0210 C.3     1  LIG  -0.1036   0.0000 
7     C7       0.4873    7.0753    6.1611 C.3     1  LIG  -0.0544   0.0000 
8     C8       0.7266    6.3906    7.5220 C.3     1  LIG  -0.0731   0.0000 
9     C9       0.7903    7.4058    8.6724 C.3     1  LIG  -0.0714   0.0000 
10    C10      1.8590    8.4740    8.3876 C.3     1  LIG  -0.0467   0.0000 
11    C11      1.5296    9.1866    7.0569 C.3     1  LIG  -0.0537   0.0000 
12    C12      2.4597   10.4086    6.8855 C.3     1  LIG  -0.0689   0.0000 
13    C13      2.3132   11.4481    8.0243 C.3     1  LIG  -0.0652   0.0000 
14    C14      1.5609   10.9185    9.2693 C.3     1  LIG  -0.0783   0.0000 
15    C15      2.0605    9.4881    9.5450 C.3     1  LIG  -0.0575   0.0000 
16    C16      1.5155    9.2005   10.9492 C.3     1  LIG  -0.0712   0.0000 
17    C17      1.5187   10.5798   11.6548 C.3     1  LIG  -0.0796   0.0000 
18    C18      1.8982   11.6344   10.5857 C.3     1  LIG   0.1423   0.2800 
19    O1       3.2956   11.8795   10.6828 O.3     1  LIG  -0.5967  -0.6800 
20    C19      0.0259   11.0238    9.0276 C.3     1  LIG  -0.0843   0.0000 
21    F1       0.0720    5.8259    2.7187 F       1  LIG  -0.2478  -0.3400 
22    H1       3.4798   12.7073   10.2074 H       1  LIG   0.3982   0.4000 
23    H2       3.3494    6.9932    6.5589 H       1  LIG   0.0390   0.0000 
24    H3       3.0674    6.8721    4.8454 H       1  LIG   0.0369   0.0000 
25    H4       3.7463    8.3453    5.4969 H       1  LIG   0.0366   0.0000 
26    H5       0.2670    9.4222    4.6710 H       1  LIG   0.0409   0.0000 
27    H6       1.9615    9.5775    4.2276 H       1  LIG   0.0466   0.0000 
28    H7       0.6012    8.4218    2.4943 H       1  LIG   0.0506   0.0000 
29    H8       1.9461    7.4594    3.0374 H       1  LIG   0.0562   0.0000 
30    H9      -0.9866    7.1636    3.7912 H       1  LIG   0.0472   0.0000 
31    H10     -0.3616    5.3070    5.2471 H       1  LIG   0.0527   0.0000 
32    H11      1.3349    5.4950    4.9039 H       1  LIG   0.0588   0.0000 
33    H12     -0.5041    7.5574    6.2649 H       1  LIG   0.0454   0.0000 
34    H13     -0.0882    5.6841    7.7234 H       1  LIG   0.0407   0.0000 
35    H14      1.6476    5.7965    7.4987 H       1  LIG   0.0442   0.0000 
36    H15     -0.1955    7.8660    8.8019 H       1  LIG   0.0411   0.0000 
37    H16      1.0248    6.8648    9.5962 H       1  LIG   0.0434   0.0000 
38    H17      2.7911    7.8900    8.2985 H       1  LIG   0.0481   0.0000 
39    H18      0.5150    9.6101    7.0854 H       1  LIG   0.0518   0.0000 
40    H19      3.5054   10.0798    6.8618 H       1  LIG   0.0428   0.0000 
41    H20      2.2723   10.9211    5.9367 H       1  LIG   0.0396   0.0000 
42    H21      3.3271   11.7790    8.2755 H       1  LIG   0.0415   0.0000 
43    H22      1.8088   12.3441    7.6400 H       1  LIG   0.0367   0.0000 
44    H23      3.1615    9.4666    9.6822 H       1  LIG   0.0581   0.0000 
45    H24      0.4938    8.8082   10.9343 H       1  LIG   0.0413   0.0000 
46    H25      2.1399    8.4781   11.4852 H       1  LIG   0.0464   0.0000 
47    H26      0.5151   10.7788   12.0477 H       1  LIG   0.0448   0.0000 
48    H27      2.2207   10.5820   12.4955 H       1  LIG   0.0665   0.0000 
49    H28      1.3587   12.5747   10.7653 H       1  LIG   0.0354   0.0000 
50    H29     -0.2262   11.2783    7.9931 H       1  LIG   0.0353   0.0000 
51    H30     -0.5092   10.1079    9.2902 H       1  LIG   0.0415   0.0000 
52    H31     -0.4152   11.8284    9.6279 H       1  LIG   0.0307   0.0000 
@<TRIPOS>BOND
1     1     2     1
2     1     23    1
3     1     24    1
4     1     25    1
5     2     7     1
6     2     11    1
7     2     3     1
8     3     4     1
9     3     26    1
10    3     27    1
11    4     5     1
12    4     28    1
13    4     29    1
14    5     6     1
15    5     21    1
16    5     30    1
17    6     7     1
18    6     31    1
19    6     32    1
20    7     8     1
21    7     33    1
22    8     9     1
23    8     34    1
24    8     35    1
25    9     10    1
26    9     36    1
27    9     37    1
28    10    15    1
29    10    11    1
30    10    38    1
31    11    12    1
32    11    39    1
33    12    13    1
34    12    40    1
35    12    41    1
36    13    14    1
37    13    42    1
38    13    43    1
39    14    18    1
40    14    15    1
41    14    20    1
42    15    16    1
43    15    44    1
44    16    17    1
45    16    45    1
46    16    46    1
47    17    18    1
48    17    47    1
49    17    48    1
50    18    19    1
51    18    49    1
52    19    22    1
53    20    50    1
54    20    51    1
55    20    52    1
@<TRIPOS>SUBSTRUCTURE
1   LIG    1    
 
########## Number      : 585
########## Name        : ZINC00002295
########## Description : AM1BCC_CHARGES =  -0.0002 ORIGINAL_CHARGES =   0.0000

@<TRIPOS>MOLECULE
ZINC00002295
45    48    1     0     0    
SMALL
USER_CHARGES
****
****
@<TRIPOS>ATOM
1     C1      -1.8666   -3.8561    6.5363 C.3     1  LIG  -0.1205   0.0000 
2     C2      -3.1554   -4.4290    5.9183 C.3     1  LIG   0.1823   0.2800 
3     C3      -4.1681   -4.8293    7.0135 C.3     1  LIG  -0.1861   0.0610 
4     C4      -5.2617   -3.8103    7.2777 C.2     1  LIG   0.5668   0.4480 
5     O1      -6.3320   -4.1781    7.7549 O.2     1  LIG  -0.5020  -0.5700 
6     C5      -4.8544   -2.3472    7.0658 C.3     1  LIG   0.1027   0.4010 
7     C6      -4.4247   -2.1707    5.5856 C.3     1  LIG  -0.0763   0.0000 
8     C7      -3.8758   -3.4703    4.9350 C.3     1  LIG  -0.0918   0.0000 
9     C8      -2.9546   -3.2185    3.7373 C.3     1  LIG  -0.0760   0.0000 
10    C9      -2.6182   -4.5317    3.0581 C.3     1  LIG  -0.1663   0.0610 
11    C10     -2.2237   -5.6490    3.9873 C.2     1  LIG   0.7176   0.6590 
12    O2      -1.5358   -6.5898    3.5986 O.2     1  LIG  -0.5735  -0.5700 
13    O3      -2.7770   -5.6449    5.2231 O.3     1  LIG  -0.4270  -0.4300 
14    C11     -3.5178   -0.9072    5.5253 C.3     1  LIG  -0.0675   0.0000 
15    C12     -3.9873    0.2154    6.4790 C.3     1  LIG  -0.0558   0.1382 
16    C13     -5.4680    0.0854    6.7441 C.2     1  LIG  -0.0567  -0.2764 
17    C14     -6.3157    1.0062    6.2578 C.2     1  LIG  -0.2411  -0.1356 
18    C15     -7.7675    0.7376    6.2185 C.2     1  LIG   0.5569   0.5412 
19    O4      -8.5746    1.6201    5.9517 O.2     1  LIG  -0.5196  -0.5700 
20    C16     -8.1948   -0.6608    6.4273 C.2     1  LIG  -0.2413  -0.1356 
21    C17     -7.3441   -1.5645    6.9323 C.2     1  LIG  -0.1127  -0.2882 
22    C18     -5.9310   -1.2327    7.4040 C.3     1  LIG  -0.0043   0.2764 
23    C19     -6.0066   -1.0505    8.9354 C.3     1  LIG  -0.0844   0.0000 
24    F1      -3.7766   -2.1203    7.8748 F       1  LIG  -0.2253  -0.3400 
25    H1      -1.4346   -4.5849    7.2336 H       1  LIG   0.0625   0.0000 
26    H2      -1.0918   -3.6978    5.7789 H       1  LIG   0.0456   0.0000 
27    H3      -1.9954   -2.9240    7.0798 H       1  LIG   0.0643   0.0000 
28    H4      -4.6694   -5.7612    6.7203 H       1  LIG   0.1087   0.0000 
29    H5      -3.6594   -5.0314    7.9631 H       1  LIG   0.0968   0.0000 
30    H6      -5.2949   -1.9132    4.9488 H       1  LIG   0.0768   0.0000 
31    H7      -4.7526   -3.9925    4.4972 H       1  LIG   0.0669   0.0000 
32    H8      -3.4480   -2.5595    3.0126 H       1  LIG   0.0600   0.0000 
33    H9      -2.0307   -2.7135    4.0374 H       1  LIG   0.0587   0.0000 
34    H10     -3.4847   -4.8845    2.4863 H       1  LIG   0.0853   0.0000 
35    H11     -1.7972   -4.3649    2.3518 H       1  LIG   0.0886   0.0000 
36    H12     -2.4757   -1.1465    5.7595 H       1  LIG   0.0575   0.0000 
37    H13     -3.5212   -0.5218    4.4976 H       1  LIG   0.0524   0.0000 
38    H14     -3.4430    0.1635    7.4295 H       1  LIG   0.0706   0.0000 
39    H15     -3.7291    1.1876    6.0418 H       1  LIG   0.0601   0.0000 
40    H16     -5.9752    1.9218    5.7874 H       1  LIG   0.1543   0.1500 
41    H17     -9.2189   -0.9180    6.1834 H       1  LIG   0.1573   0.1500 
42    H18     -7.7529   -2.5536    7.1035 H       1  LIG   0.1677   0.1500 
43    H19     -6.7397   -0.2842    9.2168 H       1  LIG   0.0566   0.0000 
44    H20     -6.2955   -1.9808    9.4376 H       1  LIG   0.0561   0.0000 
45    H21     -5.0428   -0.7355    9.3517 H       1  LIG   0.0549   0.0000 
@<TRIPOS>BOND
1     1     2     1
2     1     25    1
3     1     26    1
4     1     27    1
5     2     8     1
6     2     13    1
7     2     3     1
8     3     4     1
9     3     28    1
10    3     29    1
11    4     5     2
12    4     6     1
13    6     22    1
14    6     7     1
15    6     24    1
16    7     8     1
17    7     14    1
18    7     30    1
19    8     9     1
20    8     31    1
21    9     10    1
22    9     32    1
23    9     33    1
24    10    11    1
25    10    34    1
26    10    35    1
27    11    12    2
28    11    13    1
29    14    15    1
30    14    36    1
31    14    37    1
32    15    16    1
33    15    38    1
34    15    39    1
35    16    22    1
36    16    17    2
37    17    18    1
38    17    40    1
39    18    19    2
40    18    20    1
41    20    21    2
42    20    41    1
43    21    22    1
44    21    42    1
45    22    23    1
46    23    43    1
47    23    44    1
48    23    45    1
@<TRIPOS>SUBSTRUCTURE
1   LIG    1    
 
########## Number      : 586
########## Name        : ZINC00002296
########## Description : AM1BCC_CHARGES =  -0.0004 ORIGINAL_CHARGES =   0.0000

@<TRIPOS>MOLECULE
ZINC00002296
47    50    1     0     0    
SMALL
USER_CHARGES
****
****
@<TRIPOS>ATOM
1     C1       1.3992   -3.6092   -1.7312 C.3     1  LIG  -0.0967   0.0000 
2     C2       0.9130   -2.3273   -1.0124 C.3     1  LIG  -0.0177   0.1382 
3     C3       0.8277   -2.6094    0.5158 C.3     1  LIG  -0.0803   0.0000 
4     C4       2.1878   -2.6970    1.1918 C.3     1  LIG  -0.1775   0.0610 
5     C5       3.0005   -1.4589    0.9133 C.2     1  LIG   0.5673   0.4946 
6     O1       3.8302   -1.0343    1.7151 O.2     1  LIG  -0.5286  -0.5700 
7     C6       2.8429   -0.7937   -0.4011 C.2     1  LIG  -0.2433  -0.1356 
8     C7       1.9290   -1.2082   -1.2947 C.2     1  LIG  -0.0431  -0.2764 
9     C8       1.8735   -0.5563   -2.6635 C.3     1  LIG  -0.0540   0.1382 
10    C9       0.4544   -0.2142   -3.1425 C.3     1  LIG  -0.0731   0.0000 
11    C10     -0.4656   -1.4434   -3.0155 C.3     1  LIG  -0.0761   0.0000 
12    C11     -0.4880   -1.8327   -1.5127 C.3     1  LIG   0.0962   0.4010 
13    C12     -1.6467   -2.8101   -1.3654 C.2     1  LIG   0.5634   0.4480 
14    O2      -1.5309   -4.0007   -1.0943 O.2     1  LIG  -0.5013  -0.5700 
15    C13     -3.0124   -2.1769   -1.5463 C.3     1  LIG  -0.1843   0.0610 
16    C14     -3.0481   -1.0819   -2.6432 C.3     1  LIG   0.1814   0.2800 
17    C15     -1.8945   -1.3595   -3.6500 C.3     1  LIG  -0.0909   0.0000 
18    C16     -2.0214   -0.3593   -4.8014 C.3     1  LIG  -0.0761   0.0000 
19    C17     -3.3765   -0.5043   -5.4708 C.3     1  LIG  -0.1670   0.0610 
20    C18     -4.5559   -0.6707   -4.5465 C.2     1  LIG   0.7165   0.6590 
21    O3      -5.7003   -0.4380   -4.9290 O.2     1  LIG  -0.5775  -0.5700 
22    O4      -4.3199   -1.2102   -3.3271 O.3     1  LIG  -0.4231  -0.4300 
23    C19     -3.0142    0.3367   -2.0375 C.3     1  LIG  -0.1163   0.0000 
24    F1      -0.7801   -0.7235   -0.7695 F       1  LIG  -0.2228  -0.3400 
25    H1       1.4284   -3.5081   -2.8191 H       1  LIG   0.0360   0.0000 
26    H2       2.4212   -3.8664   -1.4272 H       1  LIG   0.0496   0.0000 
27    H3       0.7798   -4.4787   -1.4965 H       1  LIG   0.0702   0.0000 
28    H4       0.2610   -1.8077    1.0090 H       1  LIG   0.0620   0.0000 
29    H5       0.2764   -3.5366    0.7109 H       1  LIG   0.0713   0.0000 
30    H6       2.0439   -2.7804    2.2748 H       1  LIG   0.0785   0.0000 
31    H7       2.7539   -3.5715    0.8568 H       1  LIG   0.0717   0.0000 
32    H8       3.5371    0.0107   -0.6201 H       1  LIG   0.1498   0.1500 
33    H9       2.4763    0.3601   -2.6882 H       1  LIG   0.0618   0.0000 
34    H10      2.3328   -1.2436   -3.3857 H       1  LIG   0.0571   0.0000 
35    H11      0.0622    0.6342   -2.5714 H       1  LIG   0.0642   0.0000 
36    H12      0.5250    0.1119   -4.1857 H       1  LIG   0.0523   0.0000 
37    H13      0.0297   -2.2170   -3.6290 H       1  LIG   0.0715   0.0000 
38    H14     -3.7092   -2.9833   -1.8091 H       1  LIG   0.1075   0.0000 
39    H15     -3.3366   -1.7837   -0.5764 H       1  LIG   0.0962   0.0000 
40    H16     -2.0652   -2.3459   -4.1320 H       1  LIG   0.0659   0.0000 
41    H17     -1.8863    0.6703   -4.4525 H       1  LIG   0.0598   0.0000 
42    H18     -1.2415   -0.5404   -5.5509 H       1  LIG   0.0570   0.0000 
43    H19     -3.5550    0.3746   -6.1004 H       1  LIG   0.0880   0.0000 
44    H20     -3.3650   -1.3857   -6.1233 H       1  LIG   0.0851   0.0000 
45    H21     -3.7241    0.4090   -1.2049 H       1  LIG   0.0590   0.0000 
46    H22     -2.0409    0.6601   -1.6780 H       1  LIG   0.0638   0.0000 
47    H23     -3.3522    1.0871   -2.7614 H       1  LIG   0.0462   0.0000 
@<TRIPOS>BOND
1     1     2     1
2     1     25    1
3     1     26    1
4     1     27    1
5     2     8     1
6     2     12    1
7     2     3     1
8     3     4     1
9     3     28    1
10    3     29    1
11    4     5     1
12    4     30    1
13    4     31    1
14    5     6     2
15    5     7     1
16    7     8     2
17    7     32    1
18    8     9     1
19    9     10    1
20    9     33    1
21    9     34    1
22    10    11    1
23    10    35    1
24    10    36    1
25    11    17    1
26    11    12    1
27    11    37    1
28    12    13    1
29    12    24    1
30    13    14    2
31    13    15    1
32    15    16    1
33    15    38    1
34    15    39    1
35    16    22    1
36    16    17    1
37    16    23    1
38    17    18    1
39    17    40    1
40    18    19    1
41    18    41    1
42    18    42    1
43    19    20    1
44    19    43    1
45    19    44    1
46    20    21    2
47    20    22    1
48    23    45    1
49    23    46    1
50    23    47    1
@<TRIPOS>SUBSTRUCTURE
1   LIG    1    
 
########## Number      : 587
########## Name        : ZINC00002297
########## Description : AM1BCC_CHARGES =  -0.0000 ORIGINAL_CHARGES =   0.0000

@<TRIPOS>MOLECULE
ZINC00002297
54    57    1     0     0    
SMALL
USER_CHARGES
****
****
@<TRIPOS>ATOM
1     C1       5.9756   -3.1463   -0.4100 C.3     1  LIG  -0.0897   0.0000 
2     C2       4.6013   -2.4947   -0.3631 C.3     1  LIG  -0.1634   0.0610 
3     C3       3.7616   -2.8552   -1.5685 C.2     1  LIG   0.6240   0.6590 
4     O1       4.1982   -3.5134   -2.5092 O.2     1  LIG  -0.4909  -0.5700 
5     O2       2.4834   -2.3968   -1.5826 O.3     1  LIG  -0.4197  -0.4300 
6     C4       1.8577   -1.6737   -0.4947 C.3     1  LIG   0.1428   0.2800 
7     C5       1.2676   -2.7062    0.5117 C.3     1  LIG  -0.1072   0.0000 
8     C6      -0.2420   -2.8505    0.1870 C.3     1  LIG  -0.0692   0.0000 
9     C7      -0.4059   -2.0910   -1.1283 C.3     1  LIG  -0.0669   0.0000 
10    C8       0.6122   -0.9547   -1.0189 C.3     1  LIG  -0.0450   0.0000 
11    C9       0.7601   -0.3172   -2.4162 C.3     1  LIG  -0.0643   0.0000 
12    C10     -0.5931    0.1800   -2.9648 C.3     1  LIG  -0.0735   0.0000 
13    C11     -1.6810   -0.9295   -2.9307 C.3     1  LIG  -0.0470   0.0000 
14    C12     -1.7976   -1.5842   -1.5211 C.3     1  LIG  -0.0473   0.0000 
15    C13     -2.8260   -2.7417   -1.5484 C.3     1  LIG  -0.0717   0.0000 
16    C14     -4.2070   -2.2709   -2.0125 C.3     1  LIG  -0.0418   0.1382 
17    C15     -4.0874   -1.5193   -3.2967 C.2     1  LIG  -0.0473  -0.2764 
18    C16     -4.7493   -1.7739   -4.4288 C.2     1  LIG  -0.2618  -0.1356 
19    C17     -4.2021   -0.8517   -5.4367 C.2     1  LIG   0.5646   0.4946 
20    O3      -4.6275   -0.7910   -6.5809 O.2     1  LIG  -0.5254  -0.5700 
21    C18     -3.0499   -0.0413   -4.9026 C.3     1  LIG  -0.1888   0.0610 
22    C19     -3.0841   -0.4061   -3.4019 C.3     1  LIG  -0.0244   0.1382 
23    C20     -3.5552    0.8239   -2.5959 C.3     1  LIG  -0.0824   0.0000 
24    C21      0.2085    0.1535   -0.0094 C.3     1  LIG  -0.0901   0.0000 
25    H1       6.5566   -2.8730    0.4763 H       1  LIG   0.0404   0.0000 
26    H2       5.8924   -4.2378   -0.4419 H       1  LIG   0.0505   0.0000 
27    H3       6.5338   -2.8258   -1.2960 H       1  LIG   0.0573   0.0000 
28    H4       4.0972   -2.8310    0.5470 H       1  LIG   0.0682   0.0000 
29    H5       4.7330   -1.4085   -0.3382 H       1  LIG   0.0712   0.0000 
30    H6       2.5848   -1.0152   -0.0036 H       1  LIG   0.0499   0.0000 
31    H7       1.7646   -3.6792    0.4378 H       1  LIG   0.0583   0.0000 
32    H8       1.3782   -2.3447    1.5401 H       1  LIG   0.0468   0.0000 
33    H9      -0.5284   -3.9031    0.0949 H       1  LIG   0.0502   0.0000 
34    H10     -0.8470   -2.4088    0.9866 H       1  LIG   0.0429   0.0000 
35    H11     -0.1388   -2.8281   -1.9094 H       1  LIG   0.0693   0.0000 
36    H12      1.4721    0.5163   -2.3841 H       1  LIG   0.0425   0.0000 
37    H13      1.1634   -1.0424   -3.1337 H       1  LIG   0.0703   0.0000 
38    H14     -0.9040    1.0566   -2.3903 H       1  LIG   0.0409   0.0000 
39    H15     -0.4437    0.5264   -3.9939 H       1  LIG   0.0450   0.0000 
40    H16     -1.3096   -1.6954   -3.6408 H       1  LIG   0.0581   0.0000 
41    H17     -2.1877   -0.8721   -0.7805 H       1  LIG   0.0535   0.0000 
42    H18     -2.4702   -3.5380   -2.2155 H       1  LIG   0.0508   0.0000 
43    H19     -2.9228   -3.1841   -0.5500 H       1  LIG   0.0461   0.0000 
44    H20     -4.8701   -3.1369   -2.1211 H       1  LIG   0.0559   0.0000 
45    H21     -4.6526   -1.6214   -1.2500 H       1  LIG   0.0584   0.0000 
46    H22     -5.4989   -2.5221   -4.6178 H       1  LIG   0.1606   0.1500 
47    H23     -2.1376   -0.3698   -5.4097 H       1  LIG   0.0812   0.0000 
48    H24     -3.2253    1.0213   -5.0937 H       1  LIG   0.0784   0.0000 
49    H25     -4.5813    1.0993   -2.8715 H       1  LIG   0.0427   0.0000 
50    H26     -3.5562    0.6470   -1.5166 H       1  LIG   0.0391   0.0000 
51    H27     -2.9345    1.7038   -2.7926 H       1  LIG   0.0417   0.0000 
52    H28     -0.7275    0.6564   -0.2628 H       1  LIG   0.0455   0.0000 
53    H29      0.0936   -0.2346    1.0078 H       1  LIG   0.0353   0.0000 
54    H30      0.9863    0.9256    0.0319 H       1  LIG   0.0354   0.0000 
@<TRIPOS>BOND
1     1     2     1
2     1     25    1
3     1     26    1
4     1     27    1
5     2     3     1
6     2     28    1
7     2     29    1
8     3     4     2
9     3     5     1
10    5     6     1
11    6     10    1
12    6     7     1
13    6     30    1
14    7     8     1
15    7     31    1
16    7     32    1
17    8     9     1
18    8     33    1
19    8     34    1
20    9     14    1
21    9     10    1
22    9     35    1
23    10    11    1
24    10    24    1
25    11    12    1
26    11    36    1
27    11    37    1
28    12    13    1
29    12    38    1
30    12    39    1
31    13    22    1
32    13    14    1
33    13    40    1
34    14    15    1
35    14    41    1
36    15    16    1
37    15    42    1
38    15    43    1
39    16    17    1
40    16    44    1
41    16    45    1
42    17    22    1
43    17    18    2
44    18    19    1
45    18    46    1
46    19    20    2
47    19    21    1
48    21    22    1
49    21    47    1
50    21    48    1
51    22    23    1
52    23    49    1
53    23    50    1
54    23    51    1
55    24    52    1
56    24    53    1
57    24    54    1
@<TRIPOS>SUBSTRUCTURE
1   LIG    1    
 
########## Number      : 588
########## Name        : ZINC00002298
########## Description : AM1BCC_CHARGES =  -0.0002 ORIGINAL_CHARGES =   0.0000

@<TRIPOS>MOLECULE
ZINC00002298
44    47    1     0     0    
SMALL
USER_CHARGES
****
****
@<TRIPOS>ATOM
1     C1      -7.0169    8.4670    2.4848 C.3     1  LIG  -0.0795   0.0000 
2     C2      -6.8718    8.1465    3.9980 C.3     1  LIG  -0.0919   0.0000 
3     C3      -8.1474    7.4289    4.4635 C.3     1  LIG  -0.0655   0.0000 
4     C4      -8.2728    6.0164    3.8552 C.3     1  LIG  -0.0701   0.0000 
5     C5      -6.9933    5.1484    4.0515 C.3     1  LIG  -0.0082   0.1435 
6     C6      -7.0735    3.8061    3.3274 C.ar    1  LIG  -0.1001  -0.1435 
7     C7      -8.2941    3.1189    3.1896 C.ar    1  LIG  -0.0967  -0.1500 
8     C8      -8.3593    1.8655    2.5770 C.ar    1  LIG  -0.1588  -0.1500 
9     C9      -7.1984    1.2700    2.1078 C.ar    1  LIG   0.1236   0.0825 
10    C10     -5.9714    1.9081    2.2516 C.ar    1  LIG  -0.2172  -0.1500 
11    C11     -5.8955    3.1677    2.8734 C.ar    1  LIG  -0.0322  -0.1435 
12    C12     -4.5327    3.8107    2.9814 C.3     1  LIG  -0.0374   0.1435 
13    C13     -4.4974    5.0573    3.8608 C.3     1  LIG  -0.0732   0.0000 
14    C14     -5.7350    5.9200    3.5783 C.3     1  LIG  -0.0489   0.0000 
15    C15     -5.6829    7.2485    4.3362 C.3     1  LIG  -0.0589   0.0000 
16    C16     -4.4746    8.1685    4.1533 C.3     1  LIG  -0.0732   0.0000 
17    C17     -5.0065    9.5547    4.5978 C.3     1  LIG  -0.0785   0.0000 
18    C18     -6.5355    9.4003    4.7974 C.3     1  LIG   0.1435   0.2800 
19    O1      -7.2137   10.5387    4.2912 O.3     1  LIG  -0.5929  -0.6800 
20    O2      -7.2938    0.0455    1.5110 O.3     1  LIG  -0.4985  -0.5325 
21    H1      -8.1656   10.3941    4.4271 H       1  LIG   0.4003   0.4000 
22    H2      -6.4039   -0.2372    1.2394 H       1  LIG   0.4176   0.4500 
23    H3      -6.1502    9.0103    2.0943 H       1  LIG   0.0459   0.0000 
24    H4      -7.1391    7.5759    1.8644 H       1  LIG   0.0399   0.0000 
25    H5      -7.8985    9.0930    2.3029 H       1  LIG   0.0331   0.0000 
26    H6      -8.1411    7.3329    5.5574 H       1  LIG   0.0409   0.0000 
27    H7      -9.0388    8.0163    4.2121 H       1  LIG   0.0381   0.0000 
28    H8      -9.1328    5.5365    4.3371 H       1  LIG   0.0389   0.0000 
29    H9      -8.5197    6.0903    2.7892 H       1  LIG   0.0494   0.0000 
30    H10     -6.9383    4.9677    5.1413 H       1  LIG   0.0551   0.0000 
31    H11     -9.2226    3.5394    3.5641 H       1  LIG   0.1344   0.1500 
32    H12     -9.3168    1.3623    2.4774 H       1  LIG   0.1493   0.1500 
33    H13     -5.0642    1.4335    1.8852 H       1  LIG   0.1317   0.1500 
34    H14     -3.8089    3.0844    3.3707 H       1  LIG   0.0507   0.0000 
35    H15     -4.2115    4.0840    1.9679 H       1  LIG   0.0519   0.0000 
36    H16     -4.4751    4.7660    4.9190 H       1  LIG   0.0449   0.0000 
37    H17     -3.5704    5.6060    3.6611 H       1  LIG   0.0455   0.0000 
38    H18     -5.7368    6.0848    2.4891 H       1  LIG   0.0627   0.0000 
39    H19     -5.6520    6.9651    5.4059 H       1  LIG   0.0468   0.0000 
40    H20     -3.6187    7.8575    4.7607 H       1  LIG   0.0436   0.0000 
41    H21     -4.1504    8.2035    3.1074 H       1  LIG   0.0468   0.0000 
42    H22     -4.5367    9.8590    5.5400 H       1  LIG   0.0468   0.0000 
43    H23     -4.7602   10.3204    3.8536 H       1  LIG   0.0659   0.0000 
44    H24     -6.7418    9.3206    5.8754 H       1  LIG   0.0342   0.0000 
@<TRIPOS>BOND
1     1     2     1
2     1     23    1
3     1     24    1
4     1     25    1
5     2     15    1
6     2     18    1
7     2     3     1
8     3     4     1
9     3     26    1
10    3     27    1
11    4     5     1
12    4     28    1
13    4     29    1
14    5     14    1
15    5     6     1
16    5     30    1
17    6     11    ar
18    6     7     ar
19    7     8     ar
20    7     31    1
21    8     9     ar
22    8     32    1
23    9     10    ar
24    9     20    1
25    10    11    ar
26    10    33    1
27    11    12    1
28    12    13    1
29    12    34    1
30    12    35    1
31    13    14    1
32    13    36    1
33    13    37    1
34    14    15    1
35    14    38    1
36    15    16    1
37    15    39    1
38    16    17    1
39    16    40    1
40    16    41    1
41    17    18    1
42    17    42    1
43    17    43    1
44    18    19    1
45    18    44    1
46    19    21    1
47    20    22    1
@<TRIPOS>SUBSTRUCTURE
1   LIG    1    
 
########## Number      : 589
########## Name        : ZINC00002318
########## Description : AM1BCC_CHARGES =  -0.9999 ORIGINAL_CHARGES =  -1.0000

@<TRIPOS>MOLECULE
ZINC00002318
27    28    1     0     0    
SMALL
USER_CHARGES
****
****
@<TRIPOS>ATOM
1     C1       3.9271   -9.7809   -0.7422 C.ar    1  LIG  -0.1514  -0.1500 
2     C2       3.4403   -8.9572   -1.7531 C.ar    1  LIG  -0.1349  -0.1500 
3     C3       3.2740   -7.5887   -1.5232 C.ar    1  LIG  -0.1275  -0.1500 
4     C4       3.5906   -7.0167   -0.2779 C.ar    1  LIG   0.0048   0.0000 
5     C5       4.0803   -7.8687    0.7282 C.ar    1  LIG  -0.1319  -0.1500 
6     C6       4.2473   -9.2372    0.4984 C.ar    1  LIG  -0.1363  -0.1500 
7     C7       3.4148   -5.5725   -0.0352 C.ar    1  LIG  -0.1020   0.0000 
8     C8       3.8934   -4.6180   -0.9485 C.ar    1  LIG  -0.1159  -0.1500 
9     C9       3.7269   -3.2484   -0.7192 C.ar    1  LIG  -0.1416  -0.1500 
10    C10      3.0799   -2.7935    0.4341 C.ar    1  LIG   0.0133  -0.1435 
11    C11      2.5915   -3.7340    1.3465 C.ar    1  LIG  -0.1448  -0.1500 
12    C12      2.7597   -5.1032    1.1159 C.ar    1  LIG  -0.1159  -0.1500 
13    C13      2.8850   -1.3217    0.6729 C.3     1  LIG  -0.1880   0.0375 
14    C14      1.5667   -0.8721    0.0528 C.2     1  LIG   0.9238   0.9060 
15    O1       0.5633   -0.9330    0.8190 O.co2   1  LIG  -0.8310  -0.9000 
16    H1       4.0565  -10.8443   -0.9209 H       1  LIG   0.1167   0.1500 
17    H2       3.1869   -9.3780   -2.7220 H       1  LIG   0.1198   0.1500 
18    H3       2.8819   -6.9723   -2.3297 H       1  LIG   0.1394   0.1500 
19    H4       4.3485   -7.4715    1.7052 H       1  LIG   0.1333   0.1500 
20    H5       4.6295   -9.8762    1.2893 H       1  LIG   0.1179   0.1500 
21    H6       4.4123   -4.9302   -1.8526 H       1  LIG   0.1138   0.1500 
22    H7       4.1059   -2.5383   -1.4504 H       1  LIG   0.1424   0.1500 
23    H8       2.0706   -3.4073    2.2434 H       1  LIG   0.1390   0.1500 
24    H9       2.3575   -5.8025    1.8462 H       1  LIG   0.1138   0.1500 
25    H10      2.8907   -1.1053    1.7483 H       1  LIG   0.0376   0.0000 
26    H11      3.7186   -0.7517    0.2445 H       1  LIG   0.0382   0.0000 
27    O2       1.6432   -0.4739   -1.1443 O.co2   1  LIG  -0.8325  -0.9000 
@<TRIPOS>BOND
1     1     6     ar
2     1     2     ar
3     1     16    1
4     2     3     ar
5     2     17    1
6     3     4     ar
7     3     18    1
8     4     5     ar
9     4     7     1
10    5     6     ar
11    5     19    1
12    6     20    1
13    7     12    ar
14    7     8     ar
15    8     9     ar
16    8     21    1
17    9     10    ar
18    9     22    1
19    10    11    ar
20    10    13    1
21    11    12    ar
22    11    23    1
23    12    24    1
24    13    14    1
25    13    25    1
26    13    26    1
27    14    15    2
28    14    27    1
@<TRIPOS>SUBSTRUCTURE
1   LIG    1    
 
########## Number      : 590
########## Name        : ZINC00002434
########## Description : AM1BCC_CHARGES =   0.0000 ORIGINAL_CHARGES =   0.0000

@<TRIPOS>MOLECULE
ZINC00002434
28    29    1     0     0    
SMALL
USER_CHARGES
****
****
@<TRIPOS>ATOM
1     C1       5.8941   -6.8601   -1.7475 C.3     1  LIG  -0.1537   0.1435 
2     C2       4.5219   -6.7795   -1.1517 C.ar    1  LIG   0.4391   0.1665 
3     C3       3.6293   -7.8270   -1.3206 C.ar    1  LIG  -0.2720  -0.1500 
4     C4       2.3684   -7.7106   -0.7516 C.ar    1  LIG  -0.0628  -0.1500 
5     C5       2.0276   -6.5592   -0.0312 C.ar    1  LIG  -0.1975   0.0000 
6     C6       0.7688   -6.4022    0.5575 C.ar    1  LIG  -0.0735  -0.1500 
7     C7       0.4603   -5.2404    1.2701 C.ar    1  LIG  -0.1824  -0.1500 
8     C8       1.3876   -4.1970    1.4228 C.ar    1  LIG   0.2076   0.1000 
9     C9       2.6459   -4.3969    0.8127 C.ar    1  LIG  -0.2723  -0.1500 
10    C10      2.9884   -5.5448    0.0934 C.ar    1  LIG   0.4489   0.3100 
11    N1       4.2126   -5.6560   -0.4581 N.ar    1  LIG  -0.6763  -0.6200 
12    N2       1.0850   -3.0357    2.1328 N.pl3   1  LIG  -0.7055  -0.8382 
13    C11      2.0643   -1.9660    2.2778 C.3     1  LIG   0.2147   0.3691 
14    C12     -0.2217   -2.8547    2.7529 C.3     1  LIG   0.2175   0.3691 
15    H1       6.4349   -7.7189   -1.3378 H       1  LIG   0.0493   0.0000 
16    H2       5.8292   -6.9612   -2.8354 H       1  LIG   0.0485   0.0000 
17    H3       6.4704   -5.9566   -1.5235 H       1  LIG   0.0627   0.0000 
18    H4       3.9001   -8.7162   -1.8800 H       1  LIG   0.1394   0.1500 
19    H5       1.6548   -8.5221   -0.8735 H       1  LIG   0.1328   0.1500 
20    H6       0.0139   -7.1805    0.4691 H       1  LIG   0.1306   0.1500 
21    H7      -0.5345   -5.1780    1.7040 H       1  LIG   0.1341   0.1500 
22    H8       3.4137   -3.6284    0.8909 H       1  LIG   0.1506   0.1500 
23    H9       1.6698   -1.1273    2.8618 H       1  LIG   0.0430   0.0000 
24    H10      2.9579   -2.3233    2.8013 H       1  LIG   0.0344   0.0000 
25    H11      2.3506   -1.5636    1.2999 H       1  LIG   0.0366   0.0000 
26    H12     -0.2985   -1.8925    3.2708 H       1  LIG   0.0453   0.0000 
27    H13     -1.0170   -2.8732    1.9997 H       1  LIG   0.0316   0.0000 
28    H14     -0.4098   -3.6327    3.5009 H       1  LIG   0.0293   0.0000 
@<TRIPOS>BOND
1     1     2     1
2     1     15    1
3     1     16    1
4     1     17    1
5     2     11    ar
6     2     3     ar
7     3     4     ar
8     3     18    1
9     4     5     ar
10    4     19    1
11    5     10    ar
12    5     6     ar
13    6     7     ar
14    6     20    1
15    7     8     ar
16    7     21    1
17    8     9     ar
18    8     12    1
19    9     10    ar
20    9     22    1
21    10    11    ar
22    12    13    1
23    12    14    1
24    13    23    1
25    13    24    1
26    13    25    1
27    14    26    1
28    14    27    1
29    14    28    1
@<TRIPOS>SUBSTRUCTURE
1   LIG    1    
 
########## Number      : 591
########## Name        : ZINC00002435
########## Description : AM1BCC_CHARGES =  -0.0002 ORIGINAL_CHARGES =  -0.0000

@<TRIPOS>MOLECULE
ZINC00002435
27    28    1     0     0    
SMALL
USER_CHARGES
****
****
@<TRIPOS>ATOM
1     C1       5.7469   -6.8099   -0.5001 C.3     1  LIG  -0.0643   0.1435 
2     C2       4.2707   -7.0460   -0.3252 C.ar    1  LIG  -0.0143  -0.1435 
3     C3       3.8144   -8.3557   -0.1700 C.ar    1  LIG  -0.2659  -0.1500 
4     C4       2.4595   -8.5604   -0.0104 C.ar    1  LIG   0.4217   0.1600 
5     N1       1.5439   -7.5700    0.0051 N.ar    1  LIG  -0.6702  -0.6200 
6     C5       1.9718   -6.3047   -0.1435 C.ar    1  LIG   0.4242   0.3100 
7     C6       3.3349   -5.9808   -0.3137 C.ar    1  LIG  -0.1681   0.0000 
8     C7       3.6926   -4.6235   -0.4624 C.ar    1  LIG  -0.0917  -0.1500 
9     C8       2.7331   -3.6082   -0.4443 C.ar    1  LIG  -0.1465  -0.1500 
10    C9       1.3906   -3.9267   -0.2768 C.ar    1  LIG   0.0865   0.1170 
11    C10      1.0336   -5.2753   -0.1288 C.ar    1  LIG  -0.2432  -0.1500 
12    N2       0.3436   -2.9764   -0.2441 N.am    1  LIG  -0.4758  -0.5470 
13    C11      0.4515   -1.5979   -0.3683 C.2     1  LIG   0.6684   0.5690 
14    O1       1.4697   -0.9334   -0.5300 O.2     1  LIG  -0.5875  -0.5700 
15    C12     -0.8996   -0.9337   -0.2802 C.3     1  LIG  -0.1793   0.0610 
16    H1      -0.5904   -3.3575   -0.1145 H       1  LIG   0.3172   0.3700 
17    H2       6.3100   -7.7492   -0.4827 H       1  LIG   0.0465   0.0000 
18    H3       5.9437   -6.3281   -1.4632 H       1  LIG   0.0539   0.0000 
19    H4       6.1308   -6.1829    0.3110 H       1  LIG   0.0539   0.0000 
20    H5       4.4957   -9.2000   -0.1727 H       1  LIG   0.1426   0.1500 
21    H6       2.0585   -9.5611    0.1138 H       1  LIG   0.0197   0.1500 
22    H7       4.7327   -4.3340   -0.5958 H       1  LIG   0.1378   0.1500 
23    H8       3.0796   -2.5884   -0.5643 H       1  LIG   0.1772   0.1500 
24    H9      -0.0160   -5.5384    0.0034 H       1  LIG   0.1469   0.1500 
25    H10     -0.7867    0.1495   -0.3807 H       1  LIG   0.0829   0.0000 
26    H11     -1.5459   -1.2982   -1.0837 H       1  LIG   0.0637   0.0000 
27    H12     -1.3592   -1.1533    0.6877 H       1  LIG   0.0635   0.0000 
@<TRIPOS>BOND
1     1     2     1
2     1     17    1
3     1     18    1
4     1     19    1
5     2     7     ar
6     2     3     ar
7     3     4     ar
8     3     20    1
9     4     5     ar
10    4     21    1
11    5     6     ar
12    6     11    ar
13    6     7     ar
14    7     8     ar
15    8     9     ar
16    8     22    1
17    9     10    ar
18    9     23    1
19    10    11    ar
20    10    12    1
21    11    24    1
22    12    13    am
23    12    16    1
24    13    14    2
25    13    15    1
26    15    25    1
27    15    26    1
28    15    27    1
@<TRIPOS>SUBSTRUCTURE
1   LIG    1    
 
########## Number      : 592
########## Name        : ZINC00002436
########## Description : AM1BCC_CHARGES =  -0.0000 ORIGINAL_CHARGES =  -0.0000

@<TRIPOS>MOLECULE
ZINC00002436
24    25    1     0     0    
SMALL
USER_CHARGES
****
****
@<TRIPOS>ATOM
1     C1       4.2777   -7.2937    0.2095 C.3     1  LIG  -0.0644   0.1435 
2     C2       3.2909   -6.1818   -0.0251 C.ar    1  LIG   0.0111  -0.1435 
3     C3       3.7217   -4.8590    0.1145 C.ar    1  LIG  -0.2967  -0.1500 
4     C4       2.8229   -3.8219   -0.0911 C.ar    1  LIG   0.6517   0.4100 
5     N1       1.5415   -4.0550   -0.4524 N.ar    1  LIG  -0.7469  -0.6200 
6     C5       1.1080   -5.3206   -0.5898 C.ar    1  LIG   0.4810   0.3100 
7     C6       1.9471   -6.4341   -0.3855 C.ar    1  LIG  -0.2150   0.0000 
8     C7       1.4106   -7.7290   -0.5537 C.ar    1  LIG  -0.0665  -0.1500 
9     C8       0.0761   -7.9168   -0.9135 C.ar    1  LIG  -0.1873  -0.1500 
10    C9      -0.7581   -6.8205   -1.1095 C.ar    1  LIG   0.1574   0.1000 
11    C10     -0.2204   -5.5374   -0.9496 C.ar    1  LIG  -0.2671  -0.1500 
12    N2      -2.0809   -6.9927   -1.4845 N.pl3   1  LIG  -0.8216  -0.9000 
13    N3       3.2613   -2.5057    0.0074 N.pl3   1  LIG  -0.9283  -0.9000 
14    H1      -2.4734   -7.9210   -1.5671 H       1  LIG   0.3909   0.4000 
15    H2      -2.6908   -6.1934   -1.5938 H       1  LIG   0.3933   0.4000 
16    H3       4.0238   -2.2891    0.6358 H       1  LIG   0.3972   0.4000 
17    H4       2.5740   -1.7835   -0.1676 H       1  LIG   0.4088   0.4000 
18    H5       5.2653   -6.9061    0.4821 H       1  LIG   0.0451   0.0000 
19    H6       3.9405   -7.9350    1.0302 H       1  LIG   0.0514   0.0000 
20    H7       4.4001   -7.8918   -0.6992 H       1  LIG   0.0544   0.0000 
21    H8       4.7524   -4.6416    0.3817 H       1  LIG   0.1404   0.1500 
22    H9       2.0277   -8.6125   -0.4082 H       1  LIG   0.1302   0.1500 
23    H10     -0.3025   -8.9283   -1.0379 H       1  LIG   0.1326   0.1500 
24    H11     -0.8641   -4.6728   -1.1105 H       1  LIG   0.1483   0.1500 
@<TRIPOS>BOND
1     1     2     1
2     1     18    1
3     1     19    1
4     1     20    1
5     2     7     ar
6     2     3     ar
7     3     4     ar
8     3     21    1
9     4     5     ar
10    4     13    1
11    5     6     ar
12    6     11    ar
13    6     7     ar
14    7     8     ar
15    8     9     ar
16    8     22    1
17    9     10    ar
18    9     23    1
19    10    11    ar
20    10    12    1
21    11    24    1
22    12    14    1
23    12    15    1
24    13    16    1
25    13    17    1
@<TRIPOS>SUBSTRUCTURE
1   LIG    1    
 
########## Number      : 593
########## Name        : ZINC00002500
########## Description : AM1BCC_CHARGES =  -0.0001 ORIGINAL_CHARGES =   0.0000

@<TRIPOS>MOLECULE
ZINC00002500
17    17    1     0     0    
SMALL
USER_CHARGES
****
****
@<TRIPOS>ATOM
1     C1       0.9715    2.5437   -0.4532 C.3     1  LIG  -0.0508   0.1435 
2     C2       0.6550    2.8001    0.9901 C.ar    1  LIG  -0.0770  -0.1435 
3     C3      -0.3300    3.7343    1.3433 C.ar    1  LIG  -0.1273  -0.1500 
4     C4      -0.6515    3.9547    2.6841 C.ar    1  LIG  -0.1299  -0.1500 
5     C5       0.0054    3.2323    3.6740 C.ar    1  LIG   0.1062   0.0825 
6     C6       0.9745    2.2924    3.3345 C.ar    1  LIG   0.0424   0.0825 
7     C7       1.2995    2.0682    1.9972 C.ar    1  LIG  -0.1709  -0.1500 
8     O1       1.5936    1.5967    4.3353 O.3     1  LIG  -0.5183  -0.5325 
9     O2      -0.3261    3.4646    4.9791 O.3     1  LIG  -0.4952  -0.5325 
10    H1       2.2368    0.9862    3.9356 H       1  LIG   0.4283   0.4500 
11    H2       0.2260    2.8757    5.5243 H       1  LIG   0.4360   0.4500 
12    H3       0.8238    3.4483   -1.0525 H       1  LIG   0.0447   0.0000 
13    H4       2.0166    2.2407   -0.5762 H       1  LIG   0.0416   0.0000 
14    H5       0.3250    1.7515   -0.8430 H       1  LIG   0.0468   0.0000 
15    H6      -0.8529    4.2971    0.5737 H       1  LIG   0.1363   0.1500 
16    H7      -1.4122    4.6844    2.9459 H       1  LIG   0.1526   0.1500 
17    H8       2.0508    1.3288    1.7322 H       1  LIG   0.1344   0.1500 
@<TRIPOS>BOND
1     1     2     1
2     1     12    1
3     1     13    1
4     1     14    1
5     2     7     ar
6     2     3     ar
7     3     4     ar
8     3     15    1
9     4     5     ar
10    4     16    1
11    5     6     ar
12    5     9     1
13    6     7     ar
14    6     8     1
15    7     17    1
16    8     10    1
17    9     11    1
@<TRIPOS>SUBSTRUCTURE
1   LIG    1    
 
########## Number      : 594
########## Name        : ZINC00002502
########## Description : AM1BCC_CHARGES =  -0.0000 ORIGINAL_CHARGES =   0.0000

@<TRIPOS>MOLECULE
ZINC00002502
23    23    1     0     0    
SMALL
USER_CHARGES
****
****
@<TRIPOS>ATOM
1     C1       6.5686  -10.3811   -1.5535 C.3     1  LIG  -0.0940   0.0000 
2     C2       5.9098   -9.0354   -1.2948 C.3     1  LIG  -0.0777   0.0000 
3     C3       4.4340   -9.0502   -1.6949 C.3     1  LIG  -0.0358   0.1435 
4     C4       3.7745   -7.7183   -1.4408 C.ar    1  LIG  -0.0724  -0.1435 
5     C5       3.1758   -7.4476   -0.2005 C.ar    1  LIG  -0.1289  -0.1500 
6     C6       2.5777   -6.2096    0.0465 C.ar    1  LIG  -0.1672  -0.1500 
7     C7       2.5816   -5.2355   -0.9479 C.ar    1  LIG   0.0351   0.0825 
8     C8       3.1790   -5.4932   -2.1785 C.ar    1  LIG   0.1125   0.0825 
9     C9       3.7766   -6.7256   -2.4305 C.ar    1  LIG  -0.1320  -0.1500 
10    O1       3.1961   -4.5481   -3.1657 O.3     1  LIG  -0.4957  -0.5325 
11    O2       2.0059   -4.0136   -0.7393 O.3     1  LIG  -0.5179  -0.5325 
12    H1       2.7396   -3.7613   -2.8172 H       1  LIG   0.4363   0.4500 
13    H2       1.6377   -3.9950    0.1608 H       1  LIG   0.4282   0.4500 
14    H3       7.6228  -10.3495   -1.2609 H       1  LIG   0.0352   0.0000 
15    H4       6.0800  -11.1740   -0.9783 H       1  LIG   0.0322   0.0000 
16    H5       6.5184  -10.6448   -2.6148 H       1  LIG   0.0335   0.0000 
17    H6       6.0107   -8.7848   -0.2318 H       1  LIG   0.0429   0.0000 
18    H7       6.4456   -8.2598   -1.8554 H       1  LIG   0.0456   0.0000 
19    H8       4.3321   -9.3103   -2.7562 H       1  LIG   0.0499   0.0000 
20    H9       3.8996   -9.8327   -1.1412 H       1  LIG   0.0475   0.0000 
21    H10      3.1735   -8.2027    0.5821 H       1  LIG   0.1355   0.1500 
22    H11      2.1182   -6.0217    1.0124 H       1  LIG   0.1340   0.1500 
23    H12      4.2438   -6.9127   -3.3941 H       1  LIG   0.1532   0.1500 
@<TRIPOS>BOND
1     1     2     1
2     1     14    1
3     1     15    1
4     1     16    1
5     2     3     1
6     2     17    1
7     2     18    1
8     3     4     1
9     3     19    1
10    3     20    1
11    4     9     ar
12    4     5     ar
13    5     6     ar
14    5     21    1
15    6     7     ar
16    6     22    1
17    7     8     ar
18    7     11    1
19    8     9     ar
20    8     10    1
21    9     23    1
22    10    12    1
23    11    13    1
@<TRIPOS>SUBSTRUCTURE
1   LIG    1    
 
########## Number      : 595
########## Name        : ZINC00002503
########## Description : AM1BCC_CHARGES =  -0.0002 ORIGINAL_CHARGES =   0.0000

@<TRIPOS>MOLECULE
ZINC00002503
17    17    1     0     0    
SMALL
USER_CHARGES
****
****
@<TRIPOS>ATOM
1     C1       6.5102   -7.9518    0.5430 C.3     1  LIG  -0.0570   0.1435 
2     C2       5.3326   -8.7864    0.1293 C.ar    1  LIG  -0.1299  -0.1435 
3     C3       4.9401   -9.8684    0.9331 C.ar    1  LIG  -0.1268  -0.1500 
4     C4       3.8496  -10.6666    0.5796 C.ar    1  LIG  -0.1238  -0.1500 
5     C5       3.1329  -10.3967   -0.5835 C.ar    1  LIG  -0.1883  -0.1500 
6     C6       3.5128   -9.3256   -1.3896 C.ar    1  LIG   0.1022   0.0825 
7     C7       4.6033   -8.5236   -1.0405 C.ar    1  LIG   0.1018   0.0825 
8     O1       4.9222   -7.4874   -1.8778 O.3     1  LIG  -0.4763  -0.5325 
9     O2       2.8186   -9.0474   -2.5359 O.3     1  LIG  -0.4757  -0.5325 
10    H1       5.6909   -7.0084   -1.5305 H       1  LIG   0.4158   0.4500 
11    H2       2.0986   -9.6936   -2.6297 H       1  LIG   0.4139   0.4500 
12    H3       6.9491   -8.3093    1.4806 H       1  LIG   0.0530   0.0000 
13    H4       7.2913   -7.9921   -0.2229 H       1  LIG   0.0435   0.0000 
14    H5       6.2027   -6.9127    0.6983 H       1  LIG   0.0434   0.0000 
15    H6       5.4834  -10.1000    1.8466 H       1  LIG   0.1340   0.1500 
16    H7       3.5606  -11.4997    1.2142 H       1  LIG   0.1346   0.1500 
17    H8       2.2870  -11.0242   -0.8480 H       1  LIG   0.1354   0.1500 
@<TRIPOS>BOND
1     1     2     1
2     1     12    1
3     1     13    1
4     1     14    1
5     2     7     ar
6     2     3     ar
7     3     4     ar
8     3     15    1
9     4     5     ar
10    4     16    1
11    5     6     ar
12    5     17    1
13    6     7     ar
14    6     9     1
15    7     8     1
16    8     10    1
17    9     11    1
@<TRIPOS>SUBSTRUCTURE
1   LIG    1    
 
########## Number      : 596
########## Name        : ZINC00002554
########## Description : AM1BCC_CHARGES =  -0.0001 ORIGINAL_CHARGES =  -0.0000

@<TRIPOS>MOLECULE
ZINC00002554
31    33    1     0     0    
SMALL
USER_CHARGES
****
****
@<TRIPOS>ATOM
1     C1       5.6979   -7.9072   -0.1149 C.2     1  LIG   0.4959   0.4500 
2     N1       5.3807   -6.7938    0.4780 N.2     1  LIG  -0.6070  -0.5760 
3     C2       4.2340   -6.2655   -0.0153 C.2     1  LIG   0.0678  -0.0256 
4     C3       3.4293   -6.7609   -1.0181 C.2     1  LIG   0.2030   0.1412 
5     C4       3.7906   -7.9963   -1.6684 C.2     1  LIG   0.6344   0.7160 
6     N2       4.9747   -8.5193   -1.1398 N.am    1  LIG  -0.4968  -0.4900 
7     O1       3.1399   -8.5146   -2.5675 O.2     1  LIG  -0.5940  -0.5700 
8     N3       2.3542   -5.9565   -1.2563 N.2     1  LIG  -0.5894  -0.5653 
9     C5       2.4993   -4.9656   -0.3991 C.2     1  LIG   0.3965   0.0365 
10    N4       3.6226   -5.1074    0.3823 N.pl3   1  LIG  -0.1838   0.0476 
11    C6       4.0923   -4.2030    1.4239 C.3     1  LIG   0.0530   0.2556 
12    C7       2.9764   -3.8619    2.4381 C.3     1  LIG  -0.0947   0.0000 
13    C8       2.6559   -2.3891    2.2044 C.3     1  LIG  -0.0774   0.0000 
14    C9       4.0019   -1.8163    1.7617 C.3     1  LIG  -0.1121   0.0000 
15    C10      4.5535   -2.8726    0.8140 C.3     1  LIG  -0.0997   0.0000 
16    C11      3.8309   -0.4708    1.0584 C.3     1  LIG   0.1335   0.2800 
17    O2       5.0983    0.0829    0.7306 O.3     1  LIG  -0.5936  -0.6800 
18    H1       5.3186   -9.3908   -1.5293 H       1  LIG   0.3390   0.3700 
19    H2       5.5087   -0.4909    0.0620 H       1  LIG   0.3985   0.4000 
20    H3       6.6024   -8.4695    0.1650 H       1  LIG   0.0559   0.0600 
21    H4       1.8274   -4.1237   -0.3021 H       1  LIG   0.0688   0.1500 
22    H5       4.8936   -4.7057    1.9879 H       1  LIG   0.0920   0.0000 
23    H6       2.0853   -4.4934    2.3651 H       1  LIG   0.0634   0.0000 
24    H7       3.3730   -3.9795    3.4548 H       1  LIG   0.0587   0.0000 
25    H8       1.9021   -2.2866    1.4149 H       1  LIG   0.0462   0.0000 
26    H9       2.2716   -1.9037    3.1067 H       1  LIG   0.0559   0.0000 
27    H10      4.6320   -1.6834    2.6575 H       1  LIG   0.0700   0.0000 
28    H11      5.6468   -2.8267    0.7587 H       1  LIG   0.0600   0.0000 
29    H12      4.1752   -2.7291   -0.2055 H       1  LIG   0.0583   0.0000 
30    H13      3.2362   -0.5531    0.1420 H       1  LIG   0.0270   0.0000 
31    H14      3.3232    0.2385    1.7203 H       1  LIG   0.0706   0.0000 
@<TRIPOS>BOND
1     1     20    1
2     1     2     2
3     1     6     1
4     2     3     1
5     3     10    1
6     3     4     2
7     4     8     1
8     4     5     1
9     5     6     am
10    5     7     2
11    6     18    1
12    8     9     2
13    9     10    1
14    9     21    1
15    10    11    1
16    11    15    1
17    11    12    1
18    11    22    1
19    12    13    1
20    12    23    1
21    12    24    1
22    13    14    1
23    13    25    1
24    13    26    1
25    14    15    1
26    14    16    1
27    14    27    1
28    15    28    1
29    15    29    1
30    16    17    1
31    16    30    1
32    16    31    1
33    17    19    1
@<TRIPOS>SUBSTRUCTURE
1   LIG    1    
 
########## Number      : 597
########## Name        : ZINC00002555
########## Description : AM1BCC_CHARGES =   0.0001 ORIGINAL_CHARGES =   0.0000

@<TRIPOS>MOLECULE
ZINC00002555
33    35    1     0     0    
SMALL
USER_CHARGES
****
****
@<TRIPOS>ATOM
1     C1       1.3863    2.4552    1.1981 C.2     1  LIG   0.3915   0.0365 
2     N1       1.5836    2.3209    2.4945 N.2     1  LIG  -0.5854  -0.5653 
3     C2       1.9105    3.5775    2.9110 C.2     1  LIG   0.1751   0.1412 
4     C3       1.9133    4.4826    1.8751 C.2     1  LIG   0.1129  -0.0256 
5     N2       1.5688    3.7501    0.7715 N.pl3   1  LIG  -0.1942   0.0476 
6     C4       1.4372    4.2572   -0.5884 C.3     1  LIG   0.0526   0.2556 
7     C5       0.0899    3.8481   -1.2279 C.3     1  LIG  -0.0952   0.0000 
8     C6       0.4500    2.8526   -2.3262 C.3     1  LIG  -0.0787   0.0000 
9     C7       1.8245    3.3386   -2.7834 C.3     1  LIG  -0.1068   0.0000 
10    C8       2.5420    3.6850   -1.4863 C.3     1  LIG  -0.0899   0.0000 
11    C9       2.5726    2.2549   -3.5570 C.3     1  LIG   0.1331   0.2800 
12    O1       3.8431    2.7360   -3.9758 O.3     1  LIG  -0.5936  -0.6800 
13    N3       2.1937    5.8065    1.9167 N.2     1  LIG  -0.6741  -0.5760 
14    C10      2.4943    6.2393    3.1194 C.2     1  LIG   0.6803   0.5600 
15    N4       2.5196    5.3990    4.2481 N.am    1  LIG  -0.5096  -0.4900 
16    C11      2.2363    4.0295    4.2371 C.2     1  LIG   0.6512   0.7160 
17    O2       2.2610    3.3044    5.2242 O.2     1  LIG  -0.5988  -0.5700 
18    N5       2.8054    7.5497    3.3532 N.pl3   1  LIG  -0.8925  -0.8500 
19    H1       3.6908    3.5159   -4.5362 H       1  LIG   0.3971   0.4000 
20    H2       2.7615    5.8107    5.1423 H       1  LIG   0.3345   0.3700 
21    H3       2.8100    8.2198    2.5925 H       1  LIG   0.4291   0.4000 
22    H4       3.0384    7.8905    4.2781 H       1  LIG   0.4090   0.4000 
23    H5       1.1134    1.6549    0.5239 H       1  LIG   0.0662   0.1500 
24    H6       1.4533    5.3578   -0.5542 H       1  LIG   0.0882   0.0000 
25    H7      -0.6423    3.4380   -0.5251 H       1  LIG   0.0635   0.0000 
26    H8      -0.3665    4.7331   -1.6898 H       1  LIG   0.0552   0.0000 
27    H9       0.5041    1.8382   -1.9139 H       1  LIG   0.0473   0.0000 
28    H10     -0.2843    2.8515   -3.1376 H       1  LIG   0.0515   0.0000 
29    H11      1.6792    4.2190   -3.4323 H       1  LIG   0.0509   0.0000 
30    H12      3.3331    4.4243   -1.6541 H       1  LIG   0.0623   0.0000 
31    H13      3.0190    2.8005   -1.0468 H       1  LIG   0.0696   0.0000 
32    H14      2.7339    1.3599   -2.9468 H       1  LIG   0.0712   0.0000 
33    H15      2.0100    1.9538   -4.4471 H       1  LIG   0.0266   0.0000 
@<TRIPOS>BOND
1     1     23    1
2     1     5     1
3     1     2     2
4     2     3     1
5     3     4     2
6     3     16    1
7     4     5     1
8     4     13    1
9     5     6     1
10    6     10    1
11    6     7     1
12    6     24    1
13    7     8     1
14    7     25    1
15    7     26    1
16    8     9     1
17    8     27    1
18    8     28    1
19    9     10    1
20    9     11    1
21    9     29    1
22    10    30    1
23    10    31    1
24    11    12    1
25    11    32    1
26    11    33    1
27    12    19    1
28    13    14    2
29    14    15    1
30    14    18    1
31    15    20    1
32    15    16    am
33    16    17    2
34    18    22    1
35    18    21    1
@<TRIPOS>SUBSTRUCTURE
1   LIG    1    
 
########## Number      : 598
########## Name        : ZINC00002646
########## Description : AM1BCC_CHARGES =   1.0004 ORIGINAL_CHARGES =   0.9999

@<TRIPOS>MOLECULE
ZINC00002646
24    25    1     0     0    
SMALL
USER_CHARGES
****
****
@<TRIPOS>ATOM
1     C1       4.3395   -7.5585   -1.1402 C.3     1  LIG  -0.0478   0.1810 
2     C2       3.1544   -7.7427   -0.2509 C.2     1  LIG  -0.0694  -0.1810 
3     C3       3.0574   -8.7349    0.7082 C.2     1  LIG  -0.1955  -0.1100 
4     S1       1.5767   -8.6900    1.5571 S.3     1  LIG   0.2678  -0.0800 
5     C4       1.0383   -7.3621    0.6452 C.2     1  LIG  -0.1037   0.1640 
6     C5       1.9806   -6.9077   -0.2472 C.2     1  LIG  -0.1091   0.2570 
7     N1       1.8830   -5.8381   -1.1513 N.pl3   1  LIG  -0.2565  -0.7737 
8     C6       1.1845   -4.6651   -0.9727 C.cat   1  LIG   0.4694   1.2000 
9     C7      -0.0105   -2.9122   -0.0316 C.3     1  LIG   0.0010   0.3276 
10    C8       0.2838   -2.5892   -1.5014 C.3     1  LIG  -0.0027   0.3276 
11    N2       1.0380   -3.7352   -2.0071 N.pl3   1  LIG  -0.3701  -0.8443 
12    Cl1     -0.5901   -6.8615    0.8872 Cl      1  LIG  -0.0050  -0.1240 
13    H1       2.4592   -5.8619   -1.9921 H       1  LIG   0.3367   0.4500 
14    H2       1.4018   -3.8686   -2.9459 H       1  LIG   0.3241   0.4500 
15    H3       5.1400   -8.2632   -0.8924 H       1  LIG   0.0762   0.0000 
16    H4       4.0582   -7.7202   -2.1858 H       1  LIG   0.0475   0.0000 
17    H5       4.7404   -6.5448   -1.0386 H       1  LIG   0.0574   0.0000 
18    H6       3.7906   -9.4932    0.9475 H       1  LIG   0.2055   0.1500 
19    H7      -1.0851   -2.9777    0.1600 H       1  LIG   0.0928   0.0000 
20    H8       0.4390   -2.1765    0.6411 H       1  LIG   0.1042   0.0000 
21    H9      -0.6358   -2.4789   -2.0826 H       1  LIG   0.1072   0.0000 
22    H10      0.8929   -1.6865   -1.6014 H       1  LIG   0.0901   0.0000 
23    N3       0.5998   -4.2190    0.2088 N.pl3   1  LIG  -0.3590  -0.8443 
24    H11      0.6211   -4.7320    1.0844 H       1  LIG   0.3393   0.4500 
@<TRIPOS>BOND
1     1     2     1
2     1     15    1
3     1     16    1
4     1     17    1
5     2     6     1
6     2     3     2
7     3     4     1
8     3     18    1
9     4     5     1
10    5     6     2
11    5     12    1
12    6     7     1
13    7     8     1
14    7     13    1
15    8     11    1
16    8     23    2
17    9     10    1
18    9     19    1
19    9     20    1
20    9     23    1
21    10    11    1
22    10    21    1
23    10    22    1
24    11    14    1
25    23    24    1
@<TRIPOS>SUBSTRUCTURE
1   LIG    1    
 
########## Number      : 599
########## Name        : ZINC00002647
########## Description : AM1BCC_CHARGES =  -1.0000 ORIGINAL_CHARGES =  -1.0000

@<TRIPOS>MOLECULE
ZINC00002647
32    32    1     0     0    
SMALL
USER_CHARGES
****
****
@<TRIPOS>ATOM
1     C1       3.4895   -9.8648   -1.8569 C.3     1  LIG  -0.0884   0.0000 
2     C2       2.9445   -8.4603   -1.5861 C.3     1  LIG  -0.0663   0.0000 
3     C3       1.4155   -8.4777   -1.6601 C.3     1  LIG  -0.0899   0.0000 
4     C4       3.4514   -7.9583   -0.2198 C.3     1  LIG  -0.0180   0.1435 
5     C5       3.1469   -6.5047    0.0474 C.ar    1  LIG  -0.1226  -0.1435 
6     C6       3.8403   -5.4963   -0.6319 C.ar    1  LIG  -0.1382  -0.1500 
7     C7       3.5545   -4.1501   -0.3897 C.ar    1  LIG  -0.1443  -0.1500 
8     C8       2.5726   -3.7797    0.5403 C.ar    1  LIG  -0.0060  -0.1435 
9     C9       1.8770   -4.7940    1.2144 C.ar    1  LIG  -0.1202  -0.1500 
10    C10      2.1623   -6.1407    0.9727 C.ar    1  LIG  -0.1351  -0.1500 
11    C11      2.2813   -2.3112    0.7749 C.3     1  LIG  -0.1718   0.0375 
12    C12      2.4301   -1.9280    2.2527 C.3     1  LIG  -0.0606   0.0000 
13    C13      0.8689   -2.0103    0.2520 C.2     1  LIG   0.9244   0.9060 
14    O1       0.8049   -1.8320   -1.0003 O.co2   1  LIG  -0.8294  -0.9000 
15    H1       4.5847   -9.8646   -1.8521 H       1  LIG   0.0241   0.0000 
16    H2       3.1466  -10.5776   -1.0991 H       1  LIG   0.0252   0.0000 
17    H3       3.1613  -10.2276   -2.8367 H       1  LIG   0.0240   0.0000 
18    H4       3.3159   -7.7998   -2.3800 H       1  LIG   0.0530   0.0000 
19    H5       1.0008   -7.4693   -1.5664 H       1  LIG   0.0642   0.0000 
20    H6       1.0789   -8.8802   -2.6217 H       1  LIG   0.0207   0.0000 
21    H7       0.9863   -9.0983   -0.8661 H       1  LIG   0.0216   0.0000 
22    H8       3.0363   -8.5806    0.5841 H       1  LIG   0.0336   0.0000 
23    H9       4.5405   -8.0870   -0.1580 H       1  LIG   0.0302   0.0000 
24    H10      4.6086   -5.7517   -1.3575 H       1  LIG   0.1061   0.1500 
25    H11      4.1063   -3.3897   -0.9372 H       1  LIG   0.1240   0.1500 
26    H12      1.0979   -4.5461    1.9311 H       1  LIG   0.1646   0.1500 
27    H13      1.6027   -6.9027    1.5094 H       1  LIG   0.1109   0.1500 
28    H14      3.0317   -1.6942    0.2526 H       1  LIG   0.0434   0.0000 
29    H15      2.2378   -0.8583    2.3922 H       1  LIG   0.0224   0.0000 
30    H16      1.7407   -2.4729    2.9067 H       1  LIG   0.0459   0.0000 
31    H17      3.4471   -2.1353    2.6048 H       1  LIG  -0.0089   0.0000 
32    O2      -0.0590   -1.9625    1.1073 O.co2   1  LIG  -0.8386  -0.9000 
@<TRIPOS>BOND
1     1     2     1
2     1     15    1
3     1     16    1
4     1     17    1
5     2     3     1
6     2     4     1
7     2     18    1
8     3     19    1
9     3     20    1
10    3     21    1
11    4     5     1
12    4     22    1
13    4     23    1
14    5     10    ar
15    5     6     ar
16    6     7     ar
17    6     24    1
18    7     8     ar
19    7     25    1
20    8     9     ar
21    8     11    1
22    9     10    ar
23    9     26    1
24    10    27    1
25    11    12    1
26    11    13    1
27    11    28    1
28    12    29    1
29    12    30    1
30    12    31    1
31    13    14    2
32    13    32    1
@<TRIPOS>SUBSTRUCTURE
1   LIG    1    
 
########## Number      : 600
########## Name        : ZINC00002650
########## Description : AM1BCC_CHARGES =   1.0002 ORIGINAL_CHARGES =   1.0000

@<TRIPOS>MOLECULE
ZINC00002650
49    52    1     0     0    
SMALL
USER_CHARGES
****
****
@<TRIPOS>ATOM
1     C1      -3.0099    1.4144   -0.8957 C.ar    1  LIG  -0.0714  -0.1500 
2     C2      -3.1285    2.2139    0.2481 C.ar    1  LIG  -0.1641  -0.1500 
3     C3      -2.5961    1.8268    1.4948 C.ar    1  LIG  -0.0679  -0.1435 
4     C4      -1.9775    0.5613    1.5375 C.ar    1  LIG  -0.2190  -0.1500 
5     C5      -1.8564   -0.2323    0.3919 C.ar    1  LIG   0.1404   0.0825 
6     C6      -2.3642    0.1878   -0.8285 C.ar    1  LIG  -0.1970  -0.1500 
7     O1      -1.2205   -1.4366    0.5125 O.3     1  LIG  -0.4990  -0.5325 
8     C7      -2.7542    2.7506    2.7571 C.3     1  LIG   0.0026   0.1435 
9     C8      -4.2851    2.8942    3.0314 C.3     1  LIG  -0.0728   0.0000 
10    C9      -4.7365    4.3510    3.1674 C.3     1  LIG  -0.0837   0.0000 
11    C10     -4.2917    5.2057    1.9819 C.3     1  LIG  -0.0792   0.0000 
12    C11     -2.7866    5.1392    1.6959 C.3     1  LIG  -0.0736   0.0000 
13    C12     -2.0541    4.1300    2.5918 C.3     1  LIG  -0.0685   0.0000 
14    C13     -0.6003    3.9619    2.1422 C.3     1  LIG   0.1149   0.5030 
15    C14     -0.5651    2.4546    4.1514 C.3     1  LIG   0.1148   0.5030 
16    C15     -2.0679    2.1429    4.0227 C.3     1  LIG  -0.1048   0.0000 
17    C16      1.5636    3.0119    2.8973 C.3     1  LIG   0.1488   0.5980 
18    C17      2.3695    1.8058    3.2677 C.3     1  LIG  -0.2057  -0.1950 
19    C18      2.5362    0.6754    2.2873 C.3     1  LIG  -0.1202  -0.2000 
20    C19      3.7062    1.5572    2.6211 C.3     1  LIG  -0.0863  -0.2000 
21    H1      -1.2262   -1.8788   -0.3538 H       1  LIG   0.4392   0.4500 
22    H2      -3.4338    1.7538   -1.8370 H       1  LIG   0.1546   0.1500 
23    H3      -3.6783    3.1411    0.1375 H       1  LIG   0.1507   0.1500 
24    H4      -1.5592    0.1563    2.4531 H       1  LIG   0.1422   0.1500 
25    H5      -2.2754   -0.4263   -1.7190 H       1  LIG   0.1560   0.1500 
26    H6      -4.8883    2.4319    2.2398 H       1  LIG   0.0707   0.0000 
27    H7      -4.5692    2.3534    3.9433 H       1  LIG   0.0593   0.0000 
28    H8      -5.8292    4.3856    3.2504 H       1  LIG   0.0688   0.0000 
29    H9      -4.3437    4.7747    4.0997 H       1  LIG   0.0422   0.0000 
30    H10     -4.8429    4.8919    1.0873 H       1  LIG   0.0546   0.0000 
31    H11     -4.5827    6.2482    2.1584 H       1  LIG   0.0628   0.0000 
32    H12     -2.6124    4.9477    0.6321 H       1  LIG   0.0538   0.0000 
33    H13     -2.3553    6.1343    1.8714 H       1  LIG   0.0534   0.0000 
34    H14     -2.0802    4.6261    3.5833 H       1  LIG   0.0714   0.0000 
35    H15     -0.0328    4.8619    2.4081 H       1  LIG   0.0942   0.0000 
36    H16     -0.5044    3.7973    1.0634 H       1  LIG   0.1007   0.0000 
37    H17     -0.0445    1.5897    4.5736 H       1  LIG   0.0992   0.0000 
38    H18     -0.3920    3.3203    4.8015 H       1  LIG   0.0917   0.0000 
39    H19     -2.5322    2.5777    4.9207 H       1  LIG   0.0860   0.0000 
40    H20     -2.2598    1.0707    4.1329 H       1  LIG   0.0882   0.0000 
41    H21      1.7236    3.8150    3.6260 H       1  LIG   0.1018   0.0000 
42    H22      1.8685    3.3788    1.9096 H       1  LIG   0.0960   0.0000 
43    H23      2.2796    1.5538    4.3178 H       1  LIG   0.1054   0.1000 
44    H24      2.5374   -0.3351    2.6781 H       1  LIG   0.1036   0.1000 
45    H25      2.1006    0.7714    1.3000 H       1  LIG   0.0774   0.1000 
46    H26      4.0544    2.2424    1.8578 H       1  LIG   0.0869   0.1000 
47    H27      4.4941    1.1378    3.2355 H       1  LIG   0.1046   0.1000 
48    N1       0.0687    2.7707    2.8112 N.4     1  LIG  -0.6867  -0.9590 
49    H28     -0.0675    1.9151    2.2508 H       1  LIG   0.4632   0.4500 
@<TRIPOS>BOND
1     1     6     ar
2     1     2     ar
3     1     22    1
4     2     3     ar
5     2     23    1
6     3     4     ar
7     3     8     1
8     4     5     ar
9     4     24    1
10    5     6     ar
11    5     7     1
12    6     25    1
13    7     21    1
14    8     13    1
15    8     16    1
16    8     9     1
17    9     10    1
18    9     26    1
19    9     27    1
20    10    11    1
21    10    28    1
22    10    29    1
23    11    12    1
24    11    30    1
25    11    31    1
26    12    13    1
27    12    32    1
28    12    33    1
29    13    14    1
30    13    34    1
31    14    35    1
32    14    36    1
33    14    48    1
34    15    16    1
35    15    37    1
36    15    38    1
37    15    48    1
38    16    39    1
39    16    40    1
40    17    18    1
41    17    41    1
42    17    42    1
43    17    48    1
44    18    20    1
45    18    19    1
46    18    43    1
47    19    20    1
48    19    44    1
49    19    45    1
50    20    46    1
51    20    47    1
52    48    49    1
@<TRIPOS>SUBSTRUCTURE
1   LIG    1    
 
########## Number      : 601
########## Name        : ZINC00002744
########## Description : AM1BCC_CHARGES =  -0.0001 ORIGINAL_CHARGES =   0.0000

@<TRIPOS>MOLECULE
ZINC00002744
15    15    1     0     0    
SMALL
USER_CHARGES
****
****
@<TRIPOS>ATOM
1     C1      -1.2904   -7.1570   -0.1436 C.2     1  LIG  -0.0647  -0.1500 
2     C2      -1.8683   -8.0571   -0.9454 C.2     1  LIG  -0.1686  -0.1500 
3     C3      -1.5872   -8.2734   -2.3411 C.2     1  LIG  -0.0394  -0.1500 
4     C4      -1.1748   -7.3699   -3.2423 C.2     1  LIG  -0.1546   0.1244 
5     C5      -0.8503   -5.9463   -2.9302 C.2     1  LIG   0.5962   0.5412 
6     O1      -1.1232   -5.0477   -3.7247 O.2     1  LIG  -0.4667  -0.5700 
7     C6      -0.0658   -5.6341   -1.6994 C.2     1  LIG   0.0598   0.0911 
8     C7      -0.2670   -6.2104   -0.5051 C.2     1  LIG  -0.2319  -0.1500 
9     O2       0.8919   -4.6447   -1.8592 O.3     1  LIG  -0.4711  -0.5267 
10    Br1     -1.0030   -7.8563   -5.0514 Br      1  LIG  -0.0428  -0.1100 
11    H1       1.3330   -4.4978   -1.0054 H       1  LIG   0.4238   0.4500 
12    H2      -1.5866   -7.1370    0.9034 H       1  LIG   0.1344   0.1500 
13    H3      -2.6079   -8.7295   -0.5150 H       1  LIG   0.1388   0.1500 
14    H4      -1.8144   -9.2850   -2.6754 H       1  LIG   0.1481   0.1500 
15    H5       0.3474   -5.8946    0.3366 H       1  LIG   0.1386   0.1500 
@<TRIPOS>BOND
1     1     8     1
2     1     2     2
3     1     12    1
4     2     3     1
5     2     13    1
6     3     4     2
7     3     14    1
8     4     5     1
9     4     10    1
10    5     6     2
11    5     7     1
12    7     8     2
13    7     9     1
14    8     15    1
15    9     11    1
@<TRIPOS>SUBSTRUCTURE
1   LIG    1    
 
########## Number      : 602
########## Name        : ZINC00002847
########## Description : AM1BCC_CHARGES =  -0.0000 ORIGINAL_CHARGES =   0.0000

@<TRIPOS>MOLECULE
ZINC00002847
25    25    1     0     0    
SMALL
USER_CHARGES
****
****
@<TRIPOS>ATOM
1     C1       2.3470  -10.2767    1.6175 C.3     1  LIG  -0.1765   0.0610 
2     C2       3.0300   -9.0276    1.1276 C.2     1  LIG   0.6620   0.5690 
3     O1       4.2208   -9.0152    0.8270 O.2     1  LIG  -0.5772  -0.5700 
4     N1       2.1598   -7.9492    1.0622 N.am    1  LIG  -0.4941  -0.5390 
5     C3       2.5354   -6.6968    0.6454 C.2     1  LIG   0.0174  -0.0410 
6     C4       1.6696   -5.6756    0.5904 C.2     1  LIG  -0.2345  -0.1784 
7     C5       2.0469   -4.3252    0.1454 C.ar    1  LIG  -0.0703   0.0284 
8     C6       3.1633   -3.6877    0.7109 C.ar    1  LIG  -0.1225  -0.1500 
9     C7       3.5041   -2.3898    0.3286 C.ar    1  LIG   0.0938   0.0825 
10    C8       2.7449   -1.6981   -0.6101 C.ar    1  LIG  -0.1831  -0.1500 
11    C9       1.6299   -2.3149   -1.1727 C.ar    1  LIG  -0.1182  -0.1500 
12    C10      1.2849   -3.6169   -0.7981 C.ar    1  LIG   0.0937   0.0825 
13    O2       0.1815   -4.1463   -1.4145 O.3     1  LIG  -0.5026  -0.5325 
14    O3       4.6011   -1.8160    0.9073 O.3     1  LIG  -0.4989  -0.5325 
15    H1       1.1904   -8.0835    1.3369 H       1  LIG   0.3139   0.3700 
16    H2       0.1060   -5.0885   -1.1933 H       1  LIG   0.4208   0.4500 
17    H3       4.7103   -0.9202    0.5449 H       1  LIG   0.4170   0.4500 
18    H4       3.0791  -11.0828    1.7180 H       1  LIG   0.0842   0.0000 
19    H5       1.8876  -10.0932    2.5929 H       1  LIG   0.0649   0.0000 
20    H6       1.5775  -10.5808    0.9024 H       1  LIG   0.0647   0.0000 
21    H7       3.5763   -6.5824    0.3578 H       1  LIG   0.1772   0.1500 
22    H8       0.6286   -5.8144    0.8696 H       1  LIG   0.1278   0.1500 
23    H9       3.7693   -4.1924    1.4606 H       1  LIG   0.1535   0.1500 
24    H10      3.0065   -0.6873   -0.9083 H       1  LIG   0.1358   0.1500 
25    H11      1.0328   -1.7798   -1.9064 H       1  LIG   0.1512   0.1500 
@<TRIPOS>BOND
1     1     2     1
2     1     18    1
3     1     19    1
4     1     20    1
5     2     3     2
6     2     4     am
7     4     5     1
8     4     15    1
9     5     6     2
10    5     21    1
11    6     7     1
12    6     22    1
13    7     12    ar
14    7     8     ar
15    8     9     ar
16    8     23    1
17    9     10    ar
18    9     14    1
19    10    11    ar
20    10    24    1
21    11    12    ar
22    11    25    1
23    12    13    1
24    13    16    1
25    14    17    1
@<TRIPOS>SUBSTRUCTURE
1   LIG    1    
 
########## Number      : 603
########## Name        : ZINC00002884
########## Description : AM1BCC_CHARGES =  -0.0001 ORIGINAL_CHARGES =   0.0000

@<TRIPOS>MOLECULE
ZINC00002884
41    41    1     0     0    
SMALL
USER_CHARGES
****
****
@<TRIPOS>ATOM
1     C1       5.7900  -10.0483   -2.0344 C.3     1  LIG  -0.0559   0.1435 
2     C2       5.1223   -8.8305   -1.4708 C.ar    1  LIG  -0.0406  -0.1435 
3     C3       4.2115   -8.1015   -2.2389 C.ar    1  LIG  -0.1637  -0.1500 
4     C4       3.5657   -6.9843   -1.7014 C.ar    1  LIG  -0.0953  -0.1500 
5     C5       3.8012   -6.5699   -0.3788 C.ar    1  LIG  -0.1026  -0.1435 
6     C6       4.7089   -7.3191    0.3850 C.ar    1  LIG   0.1331   0.0825 
7     C7       5.3581   -8.4390   -0.1493 C.ar    1  LIG  -0.2149  -0.1500 
8     O1       4.9725   -6.9578    1.6787 O.3     1  LIG  -0.4991  -0.5325 
9     C8       3.0568   -5.3406    0.1218 C.3     1  LIG  -0.0036   0.1435 
10    C9       2.1728   -5.7034    1.3263 C.3     1  LIG  -0.0900   0.0000 
11    C10      4.0606   -4.2117    0.4293 C.3     1  LIG  -0.0766   0.0000 
12    C11      3.3775   -2.8666    0.7139 C.3     1  LIG  -0.0798   0.0000 
13    C12      4.4162   -1.7529    0.9094 C.3     1  LIG  -0.1068   0.0000 
14    C13      3.8305   -0.3660    1.2494 C.3     1  LIG   0.1490   0.2800 
15    C14      4.9740    0.6346    1.4458 C.3     1  LIG  -0.0851   0.0000 
16    C15      2.8737    0.1541    0.1740 C.3     1  LIG  -0.1212   0.0000 
17    O2       3.1293   -0.4356    2.4926 O.3     1  LIG  -0.5986  -0.6800 
18    H1       5.6184   -7.5786    2.0560 H       1  LIG   0.4165   0.4500 
19    H2       2.3087   -0.9372    2.3533 H       1  LIG   0.3979   0.4000 
20    H3       5.9259   -9.9544   -3.1170 H       1  LIG   0.0455   0.0000 
21    H4       6.7830  -10.1884   -1.5944 H       1  LIG   0.0431   0.0000 
22    H5       5.1837  -10.9361   -1.8301 H       1  LIG   0.0489   0.0000 
23    H6       3.9967   -8.3953   -3.2634 H       1  LIG   0.1333   0.1500 
24    H7       2.8679   -6.4370   -2.3316 H       1  LIG   0.1333   0.1500 
25    H8       6.0521   -9.0103    0.4628 H       1  LIG   0.1321   0.1500 
26    H9       2.3498   -4.9760   -0.6440 H       1  LIG   0.0445   0.0000 
27    H10      2.7576   -5.9066    2.2284 H       1  LIG   0.0535   0.0000 
28    H11      1.4858   -4.8840    1.5625 H       1  LIG   0.0297   0.0000 
29    H12      1.5618   -6.5880    1.1134 H       1  LIG   0.0344   0.0000 
30    H13      4.6935   -4.4721    1.2857 H       1  LIG   0.0622   0.0000 
31    H14      4.7338   -4.0860   -0.4294 H       1  LIG   0.0419   0.0000 
32    H15      2.7164   -2.6188   -0.1234 H       1  LIG   0.0374   0.0000 
33    H16      2.7579   -2.9530    1.6120 H       1  LIG   0.0379   0.0000 
34    H17      5.0848   -2.0602    1.7248 H       1  LIG   0.0560   0.0000 
35    H18      5.0308   -1.6760    0.0033 H       1  LIG   0.0469   0.0000 
36    H19      4.5881    1.6156    1.7463 H       1  LIG   0.0477   0.0000 
37    H20      5.6442    0.3090    2.2498 H       1  LIG   0.0473   0.0000 
38    H21      5.5635    0.7592    0.5316 H       1  LIG   0.0367   0.0000 
39    H22      2.5216    1.1618    0.4242 H       1  LIG   0.0469   0.0000 
40    H23      3.3553    0.1914   -0.8085 H       1  LIG   0.0431   0.0000 
41    H24      1.9740   -0.4658    0.1006 H       1  LIG   0.0349   0.0000 
@<TRIPOS>BOND
1     1     2     1
2     1     20    1
3     1     21    1
4     1     22    1
5     2     7     ar
6     2     3     ar
7     3     4     ar
8     3     23    1
9     4     5     ar
10    4     24    1
11    5     6     ar
12    5     9     1
13    6     7     ar
14    6     8     1
15    7     25    1
16    8     18    1
17    9     10    1
18    9     11    1
19    9     26    1
20    10    27    1
21    10    28    1
22    10    29    1
23    11    12    1
24    11    30    1
25    11    31    1
26    12    13    1
27    12    32    1
28    12    33    1
29    13    14    1
30    13    34    1
31    13    35    1
32    14    15    1
33    14    16    1
34    14    17    1
35    15    36    1
36    15    37    1
37    15    38    1
38    16    39    1
39    16    40    1
40    16    41    1
41    17    19    1
@<TRIPOS>SUBSTRUCTURE
1   LIG    1    
 
########## Number      : 604
########## Name        : ZINC00002918
########## Description : AM1BCC_CHARGES =  -0.0000 ORIGINAL_CHARGES =   0.0000

@<TRIPOS>MOLECULE
ZINC00002918
34    36    1     0     0    
SMALL
USER_CHARGES
****
****
@<TRIPOS>ATOM
1     C1       3.6340   -9.3806    0.9522 C.3     1  LIG   0.2093   0.3691 
2     N1       4.3044   -8.6643   -0.1173 N.pl3   1  LIG  -0.7705  -0.8382 
3     C2       4.9344   -9.4099   -1.1941 C.3     1  LIG   0.2104   0.3691 
4     C3       4.4844   -7.2859   -0.0767 C.ar    1  LIG   0.7594   0.4100 
5     C4       3.9852   -6.4355    0.9408 C.ar    1  LIG  -0.2162   0.2272 
6     C5       4.2459   -5.0739    0.8448 C.ar    1  LIG   0.4571   0.1054 
7     N2       4.9282   -4.4420   -0.1210 N.ar    1  LIG  -0.7418  -0.5670 
8     C6       5.3642   -5.3158   -1.0417 C.ar    1  LIG   0.6850   0.4700 
9     N3       5.1896   -6.6556   -1.0765 N.ar    1  LIG  -0.7964  -0.6200 
10    N4       3.6612   -4.5138    1.9478 N.pl3   1  LIG  -0.2619   0.0476 
11    C7       3.0646   -5.5225    2.6516 C.2     1  LIG   0.4009   0.0365 
12    N5       3.2462   -6.6913    2.0776 N.2     1  LIG  -0.5444  -0.5653 
13    C8       3.6344   -3.1052    2.2961 C.3     1  LIG   0.0969   0.3991 
14    C9       4.8005   -2.7398    3.1736 C.ar    1  LIG  -0.1257  -0.1435 
15    C10      4.7013   -2.8395    4.5687 C.ar    1  LIG  -0.1136  -0.1500 
16    C11      5.7899   -2.5177    5.3810 C.ar    1  LIG  -0.1339  -0.1500 
17    C12      6.9884   -2.0967    4.8082 C.ar    1  LIG  -0.1172  -0.1500 
18    C13      7.1001   -1.9978    3.4228 C.ar    1  LIG  -0.1327  -0.1500 
19    C14      6.0127   -2.3189    2.6087 C.ar    1  LIG  -0.0997  -0.1500 
20    H1       2.5996   -9.0388    1.0641 H       1  LIG   0.0583   0.0000 
21    H2       3.5893  -10.4565    0.7507 H       1  LIG   0.0410   0.0000 
22    H3       4.1659   -9.2543    1.9013 H       1  LIG   0.0507   0.0000 
23    H4       4.6185   -9.0305   -2.1725 H       1  LIG   0.0564   0.0000 
24    H5       6.0258   -9.3453   -1.1226 H       1  LIG   0.0404   0.0000 
25    H6       4.6656  -10.4712   -1.1633 H       1  LIG   0.0409   0.0000 
26    H7       5.9302   -4.8949   -1.8656 H       1  LIG   0.0490   0.1500 
27    H8       2.5173   -5.3510    3.5687 H       1  LIG   0.0701   0.1500 
28    H9       3.6353   -2.5193    1.3697 H       1  LIG   0.0867   0.0000 
29    H10      2.6827   -2.8987    2.8003 H       1  LIG   0.0604   0.0000 
30    H11      3.7748   -3.1691    5.0326 H       1  LIG   0.1273   0.1500 
31    H12      5.7029   -2.5970    6.4609 H       1  LIG   0.1333   0.1500 
32    H13      7.8352   -1.8473    5.4410 H       1  LIG   0.1333   0.1500 
33    H14      8.0348   -1.6720    2.9753 H       1  LIG   0.1357   0.1500 
34    H15      6.1184   -2.2392    1.5294 H       1  LIG   0.1515   0.1500 
@<TRIPOS>BOND
1     1     2     1
2     1     20    1
3     1     21    1
4     1     22    1
5     2     3     1
6     2     4     1
7     3     23    1
8     3     24    1
9     3     25    1
10    4     9     ar
11    4     5     ar
12    5     12    1
13    5     6     ar
14    6     7     ar
15    6     10    1
16    7     8     ar
17    8     9     ar
18    8     26    1
19    10    11    1
20    10    13    1
21    11    12    2
22    11    27    1
23    13    14    1
24    13    28    1
25    13    29    1
26    14    19    ar
27    14    15    ar
28    15    16    ar
29    15    30    1
30    16    17    ar
31    16    31    1
32    17    18    ar
33    17    32    1
34    18    19    ar
35    18    33    1
36    19    34    1
@<TRIPOS>SUBSTRUCTURE
1   LIG    1    
 
########## Number      : 605
########## Name        : ZINC00002940
########## Description : AM1BCC_CHARGES =   0.0000 ORIGINAL_CHARGES =   0.0000

@<TRIPOS>MOLECULE
ZINC00002940
23    24    1     0     0    
SMALL
USER_CHARGES
****
****
@<TRIPOS>ATOM
1     C1       5.1965   -7.4083   -1.2337 C.2     1  LIG  -0.2253  -0.3000 
2     C2       3.9211   -7.2619   -0.8604 C.2     1  LIG   0.0025  -0.0382 
3     N1       3.1794   -6.1199   -0.8615 N.pl3   1  LIG  -0.4435  -0.5200 
4     N2       1.9487   -6.2884   -0.2827 N.am    1  LIG  -0.2432  -0.1570 
5     C3       1.8151   -7.6257    0.1005 C.2     1  LIG   0.6827   0.5690 
6     O1       0.8732   -8.1846    0.6472 O.2     1  LIG  -0.5713  -0.5700 
7     C4       3.0822   -8.3727   -0.3008 C.3     1  LIG  -0.1390   0.1992 
8     C5       1.0335   -5.2148   -0.1627 C.ar    1  LIG   0.0463   0.1170 
9     C6       1.3092   -3.9531   -0.7193 C.ar    1  LIG  -0.1446  -0.1500 
10    C7       0.4024   -2.8941   -0.5997 C.ar    1  LIG  -0.1198  -0.1500 
11    C8      -0.7983   -3.0740    0.0771 C.ar    1  LIG  -0.1442  -0.1500 
12    C9      -1.0924   -4.3139    0.6326 C.ar    1  LIG  -0.1162  -0.1500 
13    C10     -0.1863   -5.3738    0.5129 C.ar    1  LIG  -0.1401  -0.1500 
14    H1       3.6152   -5.2148   -0.9729 H       1  LIG   0.3849   0.4000 
15    H2       5.7695   -6.5691   -1.6136 H       1  LIG   0.1318   0.1500 
16    H3       5.6927   -8.3708   -1.1685 H       1  LIG   0.1298   0.1500 
17    H4       3.5336   -8.8275    0.5849 H       1  LIG   0.0970   0.0000 
18    H5       2.8356   -9.1209   -1.0588 H       1  LIG   0.1015   0.0000 
19    H6       2.2236   -3.7580   -1.2714 H       1  LIG   0.1469   0.1500 
20    H7       0.6371   -1.9292   -1.0406 H       1  LIG   0.1320   0.1500 
21    H8      -1.5022   -2.2524    0.1699 H       1  LIG   0.1327   0.1500 
22    H9      -2.0289   -4.4620    1.1633 H       1  LIG   0.1348   0.1500 
23    H10     -0.4676   -6.3152    0.9731 H       1  LIG   0.1643   0.1500 
@<TRIPOS>BOND
1     1     15    1
2     1     16    1
3     1     2     2
4     2     7     1
5     2     3     1
6     3     4     1
7     3     14    1
8     4     5     am
9     4     8     1
10    5     6     2
11    5     7     1
12    7     18    1
13    7     17    1
14    8     13    ar
15    8     9     ar
16    9     10    ar
17    9     19    1
18    10    11    ar
19    10    20    1
20    11    12    ar
21    11    21    1
22    12    13    ar
23    12    22    1
24    13    23    1
@<TRIPOS>SUBSTRUCTURE
1   LIG    1    
 
########## Number      : 606
########## Name        : ZINC00003015
########## Description : AM1BCC_CHARGES =  -0.0003 ORIGINAL_CHARGES =   0.0000

@<TRIPOS>MOLECULE
ZINC00003015
43    43    1     0     0    
SMALL
USER_CHARGES
****
****
@<TRIPOS>ATOM
1     C1       5.4978   -9.4878   -0.5699 C.3     1  LIG  -0.0990   0.0000 
2     C2       5.2114   -9.1831    0.8979 C.3     1  LIG   0.0345   0.3611 
3     C3       4.2649  -10.2061    1.5202 C.2     1  LIG   0.6339   0.5690 
4     O1       4.1193  -11.3418    1.0713 O.2     1  LIG  -0.6148  -0.5700 
5     N1       3.7151   -9.8201    2.7211 N.am    1  LIG  -0.6676  -0.8000 
6     N2       4.6100   -7.8636    1.0087 N.am    1  LIG  -0.5735  -0.7301 
7     C4       5.1371   -6.8633    1.8047 C.2     1  LIG   0.6745   0.5438 
8     O2       6.1517   -6.9403    2.4867 O.2     1  LIG  -0.5911  -0.5700 
9     C5       4.3491   -5.6128    1.7959 C.ar    1  LIG  -0.0869   0.0862 
10    C6       4.2306   -4.9302    0.5776 C.ar    1  LIG  -0.1208  -0.1500 
11    C7       3.5051   -3.7424    0.5145 C.ar    1  LIG  -0.1011  -0.1500 
12    C8       2.8981   -3.2363    1.6615 C.ar    1  LIG  -0.1259  -0.1500 
13    C9       3.0147   -3.9159    2.8763 C.ar    1  LIG  -0.0680  -0.1500 
14    C10      3.7465   -5.1091    2.9610 C.ar    1  LIG   0.0338   0.1015 
15    S1       3.8101   -5.9458    4.5404 S.3     1  LIG  -0.2780  -0.2425 
16    C11      5.3427   -5.3484    5.1714 C.2     1  LIG   0.7155   0.7710 
17    O3       5.8530   -4.3019    4.7970 O.2     1  LIG  -0.5692  -0.5700 
18    N3       5.8270   -6.2251    6.1143 N.am    1  LIG  -0.5390  -0.7301 
19    C12      7.0962   -6.0851    6.8458 C.3     1  LIG   0.1165   0.3001 
20    C13      7.2381   -7.2855    7.7976 C.3     1  LIG  -0.1056   0.0000 
21    C14      8.2831   -6.0894    5.8704 C.3     1  LIG  -0.1184   0.0000 
22    C15      7.1035   -4.7953    7.6801 C.3     1  LIG  -0.1017   0.0000 
23    H1       3.1113  -10.4497    3.2376 H       1  LIG   0.3148   0.3700 
24    H2       3.8792   -8.9019    3.1191 H       1  LIG   0.3173   0.3700 
25    H3       3.7346   -7.7019    0.5189 H       1  LIG   0.3210   0.3700 
26    H4       5.2632   -7.0493    6.2957 H       1  LIG   0.3144   0.3700 
27    H5       5.9795  -10.4650   -0.6812 H       1  LIG   0.0719   0.0000 
28    H6       4.5741   -9.5029   -1.1597 H       1  LIG   0.0470   0.0000 
29    H7       6.1590   -8.7299   -1.0038 H       1  LIG   0.0446   0.0000 
30    H8       6.1701   -9.2263    1.4373 H       1  LIG   0.1062   0.0000 
31    H9       4.7059   -5.3102   -0.3234 H       1  LIG   0.1444   0.1500 
32    H10      3.4141   -3.2102   -0.4282 H       1  LIG   0.1420   0.1500 
33    H11      2.3311   -2.3108    1.6116 H       1  LIG   0.1433   0.1500 
34    H12      2.5260   -3.4995    3.7547 H       1  LIG   0.1561   0.1500 
35    H13      8.1705   -7.2345    8.3709 H       1  LIG   0.0511   0.0000 
36    H14      6.4061   -7.3244    8.5105 H       1  LIG   0.0428   0.0000 
37    H15      7.2352   -8.2314    7.2433 H       1  LIG   0.0376   0.0000 
38    H16      9.2376   -6.0612    6.4080 H       1  LIG   0.0398   0.0000 
39    H17      8.2746   -6.9894    5.2448 H       1  LIG   0.0435   0.0000 
40    H18      8.2605   -5.2256    5.1977 H       1  LIG   0.0686   0.0000 
41    H19      8.0123   -4.7226    8.2882 H       1  LIG   0.0384   0.0000 
42    H20      7.0603   -3.9012    7.0495 H       1  LIG   0.0676   0.0000 
43    H21      6.2416   -4.7596    8.3563 H       1  LIG   0.0392   0.0000 
@<TRIPOS>BOND
1     1     2     1
2     1     27    1
3     1     28    1
4     1     29    1
5     2     3     1
6     2     6     1
7     2     30    1
8     3     4     2
9     3     5     am
10    5     23    1
11    5     24    1
12    6     7     am
13    6     25    1
14    7     8     2
15    7     9     1
16    9     14    ar
17    9     10    ar
18    10    11    ar
19    10    31    1
20    11    12    ar
21    11    32    1
22    12    13    ar
23    12    33    1
24    13    14    ar
25    13    34    1
26    14    15    1
27    15    16    1
28    16    17    2
29    16    18    am
30    18    19    1
31    18    26    1
32    19    20    1
33    19    21    1
34    19    22    1
35    20    35    1
36    20    36    1
37    20    37    1
38    21    38    1
39    21    39    1
40    21    40    1
41    22    41    1
42    22    42    1
43    22    43    1
@<TRIPOS>SUBSTRUCTURE
1   LIG    1    
 
########## Number      : 607
########## Name        : ZINC00003023
########## Description : AM1BCC_CHARGES =   0.0003 ORIGINAL_CHARGES =  -0.0000

@<TRIPOS>MOLECULE
ZINC00003023
35    36    1     0     0    
SMALL
USER_CHARGES
****
****
@<TRIPOS>ATOM
1     C1       6.2887  -10.9186   -1.1145 C.3     1  LIG   0.1133   0.2800 
2     O1       6.6858   -9.7702   -0.3744 O.3     1  LIG  -0.3274  -0.3625 
3     C2       5.7292   -8.8137   -0.1585 C.ar    1  LIG   0.1236   0.0825 
4     C3       4.4074   -8.8666   -0.6012 C.ar    1  LIG  -0.1947  -0.1500 
5     C4       3.5347   -7.8152   -0.3165 C.ar    1  LIG  -0.0963  -0.1500 
6     C5       3.9728   -6.7096    0.4148 C.ar    1  LIG  -0.1493  -0.1500 
7     C6       5.2911   -6.6452    0.8821 C.ar    1  LIG  -0.0370   0.0284 
8     C7       6.1635   -7.7012    0.5752 C.ar    1  LIG  -0.1421  -0.1500 
9     C8       5.8162   -5.4912    1.6319 C.2     1  LIG  -0.0791  -0.1784 
10    C9       5.0867   -4.7318    2.4656 C.2     1  LIG  -0.1278  -0.1784 
11    C10      5.6124   -3.5779    3.2152 C.ar    1  LIG   0.0124   0.0284 
12    C11      6.9321   -3.5189    3.6884 C.ar    1  LIG  -0.1520  -0.1500 
13    C12      7.3801   -2.4164    4.4207 C.ar    1  LIG  -0.0132  -0.1500 
14    C13      6.5025   -1.3671    4.6860 C.ar    1  LIG  -0.3895  -0.0090 
15    C14      5.1810   -1.4143    4.2475 C.ar    1  LIG  -0.0188  -0.1500 
16    C15      4.7405   -2.5199    3.5164 C.ar    1  LIG  -0.1511  -0.1500 
17    S1       7.0573    0.0148    5.6383 S.o2    1  LIG   1.5298   1.4470 
18    O2       5.8955    0.6164    6.2611 O.2     1  LIG  -0.6597  -0.6500 
19    O3       8.1870   -0.4181    6.4358 O.2     1  LIG  -0.6598  -0.6500 
20    N1       7.6247    1.0523    4.4058 N.pl3   1  LIG  -1.0276  -0.9780 
21    H1       8.6410    1.2038    4.4059 H       1  LIG   0.4482   0.4200 
22    H2       7.2821    0.8592    3.4565 H       1  LIG   0.4453   0.4200 
23    H3       7.1574  -11.5789   -1.1973 H       1  LIG   0.0682   0.0000 
24    H4       5.4996  -11.4708   -0.5934 H       1  LIG   0.0343   0.0000 
25    H5       5.9795  -10.6469   -2.1292 H       1  LIG   0.0336   0.0000 
26    H6       4.0249   -9.7059   -1.1731 H       1  LIG   0.1394   0.1500 
27    H7       2.5081   -7.8549   -0.6709 H       1  LIG   0.1346   0.1500 
28    H8       3.2697   -5.9018    0.6014 H       1  LIG   0.1349   0.1500 
29    H9       7.1978   -7.6673    0.9150 H       1  LIG   0.1505   0.1500 
30    H10      6.8718   -5.2827    1.4758 H       1  LIG   0.1319   0.1500 
31    H11      4.0311   -4.9402    2.6218 H       1  LIG   0.1361   0.1500 
32    H12      7.6291   -4.3333    3.5053 H       1  LIG   0.1421   0.1500 
33    H13      8.4080   -2.3981    4.7715 H       1  LIG   0.1509   0.1500 
34    H14      4.4840   -0.6084    4.4588 H       1  LIG   0.1555   0.1500 
35    H15      3.7062   -2.5432    3.1789 H       1  LIG   0.1411   0.1500 
@<TRIPOS>BOND
1     1     2     1
2     1     23    1
3     1     24    1
4     1     25    1
5     2     3     1
6     3     8     ar
7     3     4     ar
8     4     5     ar
9     4     26    1
10    5     6     ar
11    5     27    1
12    6     7     ar
13    6     28    1
14    7     8     ar
15    7     9     1
16    8     29    1
17    9     10    2
18    9     30    1
19    10    11    1
20    10    31    1
21    11    16    ar
22    11    12    ar
23    12    13    ar
24    12    32    1
25    13    14    ar
26    13    33    1
27    14    15    ar
28    14    17    1
29    15    16    ar
30    15    34    1
31    16    35    1
32    17    18    2
33    17    19    2
34    17    20    1
35    20    21    1
36    20    22    1
@<TRIPOS>SUBSTRUCTURE
1   LIG    1    
 
########## Number      : 608
########## Name        : ZINC00003047
########## Description : AM1BCC_CHARGES =  -0.0001 ORIGINAL_CHARGES =   0.0000

@<TRIPOS>MOLECULE
ZINC00003047
49    51    1     0     0    
SMALL
USER_CHARGES
****
****
@<TRIPOS>ATOM
1     C1       1.7170    5.7279   -9.0495 C.3     1  LIG  -0.0919   0.0000 
2     C2       0.9134    6.5369   -8.0235 C.3     1  LIG  -0.0323   0.1382 
3     C3      -0.5449    6.6447   -8.4797 C.3     1  LIG  -0.0883   0.0000 
4     C4       0.9840    6.0108   -6.6000 C.2     1  LIG  -0.1577  -0.1238 
5     C5       1.2740    4.7504   -6.2422 C.2     1  LIG  -0.0858  -0.1500 
6     C6       1.4021    4.2588   -4.8808 C.2     1  LIG  -0.0351  -0.1382 
7     C7       1.5872    2.9448   -4.6783 C.2     1  LIG  -0.2153  -0.1356 
8     C8       1.8142    2.3815   -3.3226 C.2     1  LIG   0.5670   0.4946 
9     O1       2.0927    1.1856   -3.2518 O.2     1  LIG  -0.5246  -0.5700 
10    C9       1.8302    3.3293   -2.1178 C.3     1  LIG  -0.1395   0.0610 
11    C10      1.5329    2.5688   -0.7550 C.3     1  LIG  -0.0270   0.0000 
12    C11      1.0483    3.5694    0.3330 C.3     1  LIG  -0.0749   0.0000 
13    C12      1.5619    4.9790    0.0970 C.3     1  LIG  -0.0770   0.0000 
14    C13      1.0338    5.5704   -1.2100 C.3     1  LIG  -0.0768   0.0000 
15    C14      0.8947    4.5608   -2.3974 C.3     1  LIG  -0.0119   0.0000 
16    C15      1.3845    5.2425   -3.7372 C.3     1  LIG  -0.1323   0.1992 
17    C16      0.5334    6.4460   -4.1191 C.2     1  LIG   0.4903   0.5090 
18    C17      0.7127    6.9829   -5.5120 C.2     1  LIG   0.4712   0.5556 
19    O2       0.5869    8.1852   -5.6914 O.2     1  LIG  -0.4712  -0.5700 
20    O3      -0.2062    7.0793   -3.3788 O.2     1  LIG  -0.4698  -0.5700 
21    C18     -0.5982    4.1333   -2.5102 C.3     1  LIG  -0.0980   0.0000 
22    C19      2.8593    1.9376   -0.2524 C.3     1  LIG  -0.0968   0.0000 
23    C20      0.4942    1.4255   -0.8263 C.3     1  LIG  -0.0987   0.0000 
24    H1       2.4210    5.5793   -3.5496 H       1  LIG   0.0934   0.0000 
25    H2       2.7582    5.6092   -8.7304 H       1  LIG   0.0403   0.0000 
26    H3       1.2890    4.7328   -9.2124 H       1  LIG   0.0334   0.0000 
27    H4       1.7253    6.2418  -10.0173 H       1  LIG   0.0443   0.0000 
28    H5       1.3472    7.5458   -8.0331 H       1  LIG   0.0806   0.0000 
29    H6      -1.1270    7.2880   -7.8110 H       1  LIG   0.0443   0.0000 
30    H7      -0.6053    7.0752   -9.4852 H       1  LIG   0.0434   0.0000 
31    H8      -1.0285    5.6616   -8.5051 H       1  LIG   0.0363   0.0000 
32    H9       1.4408    4.0120   -7.0238 H       1  LIG   0.1491   0.1500 
33    H10      1.6178    2.2309   -5.4963 H       1  LIG   0.1550   0.1500 
34    H11      2.8562    3.7322   -2.0005 H       1  LIG   0.0738   0.0000 
35    H12     -0.0469    3.6007    0.3756 H       1  LIG   0.0458   0.0000 
36    H13      1.3645    3.2335    1.3290 H       1  LIG   0.0461   0.0000 
37    H14      1.2666    5.6276    0.9302 H       1  LIG   0.0468   0.0000 
38    H15      2.6586    4.9785    0.0855 H       1  LIG   0.0384   0.0000 
39    H16      0.0620    6.0388   -1.0066 H       1  LIG   0.0665   0.0000 
40    H17      1.7054    6.3950   -1.4815 H       1  LIG   0.0398   0.0000 
41    H18     -1.2403    4.9516   -2.8475 H       1  LIG   0.0541   0.0000 
42    H19     -0.7488    3.3075   -3.2115 H       1  LIG   0.0378   0.0000 
43    H20     -1.0110    3.8238   -1.5479 H       1  LIG   0.0512   0.0000 
44    H21      3.2668    1.2217   -0.9730 H       1  LIG   0.0570   0.0000 
45    H22      3.6244    2.7015   -0.0750 H       1  LIG   0.0289   0.0000 
46    H23      2.7091    1.3995    0.6910 H       1  LIG   0.0386   0.0000 
47    H24      0.8823    0.5352   -1.3292 H       1  LIG   0.0606   0.0000 
48    H25      0.2105    1.1003    0.1825 H       1  LIG   0.0355   0.0000 
49    H26     -0.4230    1.7215   -1.3382 H       1  LIG   0.0353   0.0000 
@<TRIPOS>BOND
1     1     2     1
2     1     25    1
3     1     26    1
4     1     27    1
5     2     3     1
6     2     4     1
7     2     28    1
8     3     29    1
9     3     30    1
10    3     31    1
11    4     18    1
12    4     5     2
13    5     6     1
14    5     32    1
15    6     16    1
16    6     7     2
17    7     8     1
18    7     33    1
19    8     9     2
20    8     10    1
21    10    15    1
22    10    11    1
23    10    34    1
24    11    12    1
25    11    22    1
26    11    23    1
27    12    13    1
28    12    35    1
29    12    36    1
30    13    14    1
31    13    37    1
32    13    38    1
33    14    15    1
34    14    39    1
35    14    40    1
36    15    16    1
37    15    21    1
38    16    24    1
39    16    17    1
40    17    18    1
41    17    20    2
42    18    19    2
43    21    41    1
44    21    42    1
45    21    43    1
46    22    44    1
47    22    45    1
48    22    46    1
49    23    47    1
50    23    48    1
51    23    49    1
@<TRIPOS>SUBSTRUCTURE
1   LIG    1    
 
########## Number      : 609
########## Name        : ZINC00003177
########## Description : AM1BCC_CHARGES =  -0.0001 ORIGINAL_CHARGES =  -0.0000

@<TRIPOS>MOLECULE
ZINC00003177
25    25    1     0     0    
SMALL
USER_CHARGES
****
****
@<TRIPOS>ATOM
1     C1       5.1642   -8.6802   -1.5943 C.3     1  LIG   0.1580   0.3001 
2     N1       4.1192   -8.7236   -0.5863 N.pl3   1  LIG  -0.4644  -0.5382 
3     C2       4.1435   -9.7919    0.3919 C.3     1  LIG   0.1972   0.3001 
4     N2       3.3827   -7.6212   -0.2429 N.2     1  LIG  -0.0244  -0.0620 
5     N3       3.5127   -6.6583   -1.0259 N.2     1  LIG  -0.3343  -0.1790 
6     C3       2.7231   -5.5823   -0.5885 C.ar    1  LIG   0.1857   0.1790 
7     C4       1.4078   -5.4366   -1.0434 C.ar    1  LIG  -0.1413  -0.1500 
8     C5       0.6306   -4.3525   -0.6287 C.ar    1  LIG  -0.0715  -0.1500 
9     C6       1.1567   -3.3955    0.2474 C.ar    1  LIG  -0.1811  -0.1435 
10    C7       2.4801   -3.5295    0.6841 C.ar    1  LIG  -0.0731  -0.1500 
11    C8       3.2569   -4.6138    0.2690 C.ar    1  LIG  -0.1330  -0.1500 
12    C9       0.3294   -2.2171    0.6742 C.3     1  LIG   0.6892   1.1635 
13    F1       0.6585   -1.7489    1.9104 F       1  LIG  -0.2389  -0.3400 
14    F2       0.4609   -1.1598   -0.1733 F       1  LIG  -0.2374  -0.3400 
15    F3      -1.0045   -2.4886    0.7295 F       1  LIG  -0.2388  -0.3400 
16    H1       4.8330   -8.1220   -2.4741 H       1  LIG   0.0663   0.0000 
17    H2       6.0547   -8.2158   -1.1619 H       1  LIG   0.0357   0.0000 
18    H3       5.4014   -9.6998   -1.9121 H       1  LIG   0.0513   0.0000 
19    H4       3.2178   -9.7854    0.9750 H       1  LIG   0.0691   0.0000 
20    H5       4.2294  -10.7523   -0.1238 H       1  LIG   0.0527   0.0000 
21    H6       4.9998   -9.6462    1.0560 H       1  LIG   0.0281   0.0000 
22    H7       0.9825   -6.1693   -1.7250 H       1  LIG   0.1507   0.1500 
23    H8      -0.3885   -4.2603   -0.9969 H       1  LIG   0.1525   0.1500 
24    H9       2.9175   -2.7891    1.3498 H       1  LIG   0.1514   0.1500 
25    H10      4.2831   -4.7005    0.6178 H       1  LIG   0.1502   0.1500 
@<TRIPOS>BOND
1     1     2     1
2     1     16    1
3     1     17    1
4     1     18    1
5     2     3     1
6     2     4     1
7     3     19    1
8     3     20    1
9     3     21    1
10    4     5     2
11    5     6     1
12    6     11    ar
13    6     7     ar
14    7     8     ar
15    7     22    1
16    8     9     ar
17    8     23    1
18    9     10    ar
19    9     12    1
20    10    11    ar
21    10    24    1
22    11    25    1
23    12    13    1
24    12    14    1
25    12    15    1
@<TRIPOS>SUBSTRUCTURE
1   LIG    1    
 
########## Number      : 610
########## Name        : ZINC00003178
########## Description : AM1BCC_CHARGES =   0.0000 ORIGINAL_CHARGES =  -0.0000

@<TRIPOS>MOLECULE
ZINC00003178
22    22    1     0     0    
SMALL
USER_CHARGES
****
****
@<TRIPOS>ATOM
1     C1       4.8525   -9.9571   -2.4631 C.3     1  LIG   0.1579   0.3001 
2     N1       5.0254   -9.4667   -1.1067 N.pl3   1  LIG  -0.4666  -0.5382 
3     C2       6.3179   -9.6252   -0.4719 C.3     1  LIG   0.1966   0.3001 
4     N2       4.2086   -8.5129   -0.5601 N.2     1  LIG  -0.0283  -0.0620 
5     N3       3.1761   -8.2865   -1.2232 N.2     1  LIG  -0.3289  -0.1790 
6     C3       2.4102   -7.2978   -0.5839 C.ar    1  LIG   0.1538   0.1790 
7     C4       1.4189   -7.6558    0.3392 C.ar    1  LIG  -0.1262  -0.1500 
8     C5       0.6394   -6.6761    0.9572 C.ar    1  LIG  -0.1152  -0.1500 
9     C6       0.8444   -5.3327    0.6456 C.ar    1  LIG   0.0075   0.1770 
10    C7       1.8191   -4.9621   -0.2799 C.ar    1  LIG  -0.1166  -0.1500 
11    C8       2.5966   -5.9447   -0.8958 C.ar    1  LIG  -0.1183  -0.1500 
12    Cl1     -0.1162   -4.1227    1.4060 Cl      1  LIG  -0.0959  -0.1770 
13    H1       3.7981  -10.1553   -2.6736 H       1  LIG   0.0655   0.0000 
14    H2       5.2470   -9.2141   -3.1616 H       1  LIG   0.0337   0.0000 
15    H3       5.4014  -10.8963   -2.5799 H       1  LIG   0.0490   0.0000 
16    H4       6.2488   -9.3590    0.5871 H       1  LIG   0.0677   0.0000 
17    H5       6.6354  -10.6683   -0.5538 H       1  LIG   0.0509   0.0000 
18    H6       7.0409   -8.9739   -0.9703 H       1  LIG   0.0256   0.0000 
19    H7       1.2527   -8.7027    0.5812 H       1  LIG   0.1464   0.1500 
20    H8      -0.1214   -6.9731    1.6741 H       1  LIG   0.1481   0.1500 
21    H9       1.9818   -3.9175   -0.5313 H       1  LIG   0.1480   0.1500 
22    H10      3.3524   -5.6519   -1.6206 H       1  LIG   0.1453   0.1500 
@<TRIPOS>BOND
1     1     2     1
2     1     13    1
3     1     14    1
4     1     15    1
5     2     3     1
6     2     4     1
7     3     16    1
8     3     17    1
9     3     18    1
10    4     5     2
11    5     6     1
12    6     11    ar
13    6     7     ar
14    7     8     ar
15    7     19    1
16    8     9     ar
17    8     20    1
18    9     10    ar
19    9     12    1
20    10    11    ar
21    10    21    1
22    11    22    1
@<TRIPOS>SUBSTRUCTURE
1   LIG    1    
 
########## Number      : 611
########## Name        : ZINC00003179
########## Description : AM1BCC_CHARGES =   0.0000 ORIGINAL_CHARGES =  -0.0000

@<TRIPOS>MOLECULE
ZINC00003179
31    31    1     0     0    
SMALL
USER_CHARGES
****
****
@<TRIPOS>ATOM
1     C1       5.8475   -7.9842   -0.4125 C.3     1  LIG  -0.0519   0.1435 
2     C2       4.7168   -7.0108   -0.2619 C.ar    1  LIG  -0.0770  -0.1435 
3     C3       4.9711   -5.6382   -0.1779 C.ar    1  LIG  -0.1291  -0.1500 
4     C4       3.9211   -4.7142   -0.0679 C.ar    1  LIG  -0.0657  -0.1435 
5     C5       2.5877   -5.1753   -0.0304 C.ar    1  LIG   0.1384   0.1790 
6     C6       2.3237   -6.5562   -0.1554 C.ar    1  LIG  -0.0625  -0.1435 
7     C7       3.3921   -7.4590   -0.2642 C.ar    1  LIG  -0.1302  -0.1500 
8     C8       0.9131   -7.0787   -0.1458 C.3     1  LIG  -0.0505   0.1435 
9     N1       1.5228   -4.2575    0.0795 N.2     1  LIG  -0.3158  -0.1790 
10    N2       1.2427   -4.0774    1.2825 N.2     1  LIG  -0.0384  -0.0620 
11    N3       0.2093   -3.2033    1.4891 N.pl3   1  LIG  -0.4675  -0.5382 
12    C9      -0.2699   -3.1099    2.8530 C.3     1  LIG   0.1952   0.3001 
13    C10     -0.6608   -2.7582    0.4145 C.3     1  LIG   0.1567   0.3001 
14    C11      4.2360   -3.2469    0.0360 C.3     1  LIG  -0.0562   0.1435 
15    H1       6.7467   -7.6208    0.0961 H       1  LIG   0.0422   0.0000 
16    H2       5.5926   -8.9516    0.0329 H       1  LIG   0.0419   0.0000 
17    H3       6.0757   -8.1317   -1.4725 H       1  LIG   0.0459   0.0000 
18    H4       6.0001   -5.2842   -0.1983 H       1  LIG   0.1322   0.1500 
19    H5       3.1899   -8.5248   -0.3520 H       1  LIG   0.1320   0.1500 
20    H6       0.2972   -6.5362   -0.8705 H       1  LIG   0.0535   0.0000 
21    H7       0.8762   -8.1385   -0.4195 H       1  LIG   0.0383   0.0000 
22    H8       0.4785   -6.9721    0.8531 H       1  LIG   0.0443   0.0000 
23    H9      -0.6347   -2.0961    3.0395 H       1  LIG   0.0491   0.0000 
24    H10     -1.0794   -3.8309    2.9954 H       1  LIG   0.0226   0.0000 
25    H11      0.5449   -3.3261    3.5504 H       1  LIG   0.0663   0.0000 
26    H12     -1.2061   -1.8664    0.7375 H       1  LIG   0.0471   0.0000 
27    H13     -0.0787   -2.4938   -0.4724 H       1  LIG   0.0644   0.0000 
28    H14     -1.3708   -3.5559    0.1800 H       1  LIG   0.0304   0.0000 
29    H15      5.2920   -3.0475   -0.1751 H       1  LIG   0.0389   0.0000 
30    H16      3.6479   -2.6754   -0.6894 H       1  LIG   0.0521   0.0000 
31    H17      4.0191   -2.8855    1.0461 H       1  LIG   0.0533   0.0000 
@<TRIPOS>BOND
1     1     2     1
2     1     15    1
3     1     16    1
4     1     17    1
5     2     7     ar
6     2     3     ar
7     3     4     ar
8     3     18    1
9     4     5     ar
10    4     14    1
11    5     6     ar
12    5     9     1
13    6     7     ar
14    6     8     1
15    7     19    1
16    8     20    1
17    8     21    1
18    8     22    1
19    9     10    2
20    10    11    1
21    11    12    1
22    11    13    1
23    12    23    1
24    12    24    1
25    12    25    1
26    13    26    1
27    13    27    1
28    13    28    1
29    14    29    1
30    14    30    1
31    14    31    1
@<TRIPOS>SUBSTRUCTURE
1   LIG    1    
 
########## Number      : 612
########## Name        : ZINC00003182
########## Description : AM1BCC_CHARGES =   0.0002 ORIGINAL_CHARGES =  -0.0000

@<TRIPOS>MOLECULE
ZINC00003182
16    16    1     0     0    
SMALL
USER_CHARGES
****
****
@<TRIPOS>ATOM
1     C1       6.9776   -8.0823   -0.8372 C.3     1  LIG  -0.1467   0.1435 
2     C2       5.6098   -8.1767   -0.2421 C.ar    1  LIG   0.2936   0.1665 
3     C3       5.0298   -9.4056    0.0176 C.ar    1  LIG   0.2816   0.1600 
4     N1       3.7972   -9.5287    0.5542 N.ar    1  LIG  -0.6294  -0.6200 
5     C4       3.1429   -8.3799    0.8315 C.ar    1  LIG   0.2936   0.1665 
6     C5       3.7229   -7.1509    0.5718 C.ar    1  LIG   0.2816   0.1600 
7     N2       4.9555   -7.0278    0.0352 N.ar    1  LIG  -0.6294  -0.6200 
8     C6       1.7751   -8.4743    1.4266 C.3     1  LIG  -0.1467   0.1435 
9     H1       6.9995   -8.5710   -1.8161 H       1  LIG   0.0516   0.0000 
10    H2       7.2729   -7.0367   -0.9720 H       1  LIG   0.0664   0.0000 
11    H3       7.7106   -8.5609   -0.1804 H       1  LIG   0.0517   0.0000 
12    H4       5.5390  -10.3381   -0.1979 H       1  LIG   0.0313   0.1500 
13    H5       3.2137   -6.2184    0.7874 H       1  LIG   0.0313   0.1500 
14    H6       1.4798   -9.5198    1.5614 H       1  LIG   0.0664   0.0000 
15    H7       1.7531   -7.9856    2.4056 H       1  LIG   0.0516   0.0000 
16    H8       1.0421   -7.9957    0.7698 H       1  LIG   0.0517   0.0000 
@<TRIPOS>BOND
1     1     2     1
2     1     9     1
3     1     10    1
4     1     11    1
5     2     7     ar
6     2     3     ar
7     3     4     ar
8     3     12    1
9     4     5     ar
10    5     6     ar
11    5     8     1
12    6     7     ar
13    6     13    1
14    8     14    1
15    8     15    1
16    8     16    1
@<TRIPOS>SUBSTRUCTURE
1   LIG    1    
 
########## Number      : 613
########## Name        : ZINC00003252
########## Description : AM1BCC_CHARGES =  -0.0001 ORIGINAL_CHARGES =   0.0000

@<TRIPOS>MOLECULE
ZINC00003252
23    24    1     0     0    
SMALL
USER_CHARGES
****
****
@<TRIPOS>ATOM
1     C1       5.0594   -8.1543   -1.7515 C.ar    1  LIG  -0.1565  -0.1500 
2     C2       4.6960   -9.4953   -1.6549 C.ar    1  LIG  -0.1127  -0.1500 
3     C3       3.5772   -9.8860   -0.9143 C.ar    1  LIG  -0.1445  -0.1500 
4     C4       2.8388   -8.8828   -0.2758 C.ar    1  LIG  -0.0460  -0.1516 
5     C5       3.1767   -7.5302   -0.3524 C.ar    1  LIG  -0.0889   0.0000 
6     C6       4.3109   -7.1626   -1.1071 C.ar    1  LIG  -0.0844  -0.1500 
7     C7       2.2086   -6.8020    0.4134 C.2     1  LIG  -0.1411  -0.1810 
8     C8       1.3242   -7.7312    0.9249 C.2     1  LIG  -0.0986  -0.3016 
9     N1       1.7114   -8.9745    0.5058 N.pl3   1  LIG  -0.1929   0.0332 
10    C9       2.1555   -5.3262    0.6243 C.3     1  LIG  -0.0440   0.1810 
11    C10      1.4369   -4.6003   -0.5069 C.3     1  LIG   0.1284   0.2800 
12    O1       1.4009   -3.2039   -0.2416 O.3     1  LIG  -0.6012  -0.6800 
13    H1       1.2379   -9.8372    0.7362 H       1  LIG   0.2992   0.2700 
14    H2       2.3203   -2.8904   -0.1955 H       1  LIG   0.3950   0.4000 
15    H3       5.9333   -7.8731   -2.3332 H       1  LIG   0.1294   0.1500 
16    H4       5.2905  -10.2504   -2.1629 H       1  LIG   0.1295   0.1500 
17    H5       3.2950  -10.9310   -0.8400 H       1  LIG   0.1317   0.1500 
18    H6       4.6070   -6.1210   -1.1925 H       1  LIG   0.1311   0.1500 
19    H7       0.4510   -7.6128    1.5518 H       1  LIG   0.1667   0.1500 
20    H8       1.6564   -5.0997    1.5754 H       1  LIG   0.0554   0.0000 
21    H9       3.1715   -4.9260    0.7327 H       1  LIG   0.0463   0.0000 
22    H10      1.9361   -4.7578   -1.4690 H       1  LIG   0.0304   0.0000 
23    H11      0.4044   -4.9516   -0.6046 H       1  LIG   0.0676   0.0000 
@<TRIPOS>BOND
1     1     6     ar
2     1     2     ar
3     1     15    1
4     2     3     ar
5     2     16    1
6     3     4     ar
7     3     17    1
8     4     9     1
9     4     5     ar
10    5     6     ar
11    5     7     1
12    6     18    1
13    7     8     2
14    7     10    1
15    8     9     1
16    8     19    1
17    9     13    1
18    10    11    1
19    10    20    1
20    10    21    1
21    11    12    1
22    11    22    1
23    11    23    1
24    12    14    1
@<TRIPOS>SUBSTRUCTURE
1   LIG    1    
 
########## Number      : 614
########## Name        : ZINC00003275
########## Description : AM1BCC_CHARGES =   0.0001 ORIGINAL_CHARGES =   0.0000

@<TRIPOS>MOLECULE
ZINC00003275
33    36    1     0     0    
SMALL
USER_CHARGES
****
****
@<TRIPOS>ATOM
1     C1       5.1693   -9.2910   -0.4030 C.ar    1  LIG  -0.1139  -0.1500 
2     C2       4.4061   -8.2688   -0.9517 C.ar    1  LIG  -0.1470  -0.1500 
3     C3       4.2949   -7.0434   -0.2873 C.ar    1  LIG  -0.0815  -0.1500 
4     C4       4.9527   -6.7944    0.9373 C.ar    1  LIG  -0.1492   0.0000 
5     C5       5.7133   -7.8557    1.4764 C.ar    1  LIG  -0.0548  -0.1435 
6     C6       5.8135   -9.0902    0.8130 C.ar    1  LIG  -0.1411  -0.1500 
7     C7       6.3196   -7.7047    2.8447 C.3     1  LIG  -0.0348   0.1435 
8     C8       6.7160   -6.2611    3.1333 C.3     1  LIG  -0.0174   0.1435 
9     C9       5.6629   -5.2572    2.7059 C.ar    1  LIG  -0.2707  -0.1435 
10    C10      4.8463   -5.5531    1.5973 C.ar    1  LIG   0.5289   0.3100 
11    N1       3.9664   -4.6396    1.1496 N.ar    1  LIG  -0.6986  -0.6200 
12    C11      3.8186   -3.4523    1.7541 C.ar    1  LIG   0.4302   0.3100 
13    C12      2.8573   -2.5784    1.2549 C.ar    1  LIG  -0.1727  -0.1500 
14    C13      2.6336   -1.3253    1.8226 C.ar    1  LIG  -0.1185  -0.1500 
15    C14      3.3851   -0.9276    2.9153 C.ar    1  LIG  -0.1394  -0.1500 
16    C15      4.3557   -1.7865    3.4287 C.ar    1  LIG  -0.1067  -0.1500 
17    C16      4.5936   -3.0646    2.8597 C.ar    1  LIG  -0.1812   0.0000 
18    C17      5.5735   -3.9835    3.3183 C.ar    1  LIG   0.1963   0.1000 
19    N2       6.3979   -3.6617    4.3993 N.pl3   1  LIG  -0.8290  -0.9000 
20    H1       6.3933   -2.7328    4.7947 H       1  LIG   0.4027   0.4000 
21    H2       7.1845   -4.2479    4.6392 H       1  LIG   0.4029   0.4000 
22    H3       5.2512  -10.2460   -0.9132 H       1  LIG   0.1310   0.1500 
23    H4       3.8923   -8.4204   -1.8968 H       1  LIG   0.1331   0.1500 
24    H5       3.6874   -6.2702   -0.7556 H       1  LIG   0.1548   0.1500 
25    H6       6.3849   -9.9044    1.2520 H       1  LIG   0.1311   0.1500 
26    H7       5.5762   -8.0396    3.5798 H       1  LIG   0.0612   0.0000 
27    H8       7.2021   -8.3460    2.9542 H       1  LIG   0.0497   0.0000 
28    H9       6.9196   -6.1975    4.2070 H       1  LIG   0.0459   0.0000 
29    H10      7.6444   -6.0167    2.6011 H       1  LIG   0.0460   0.0000 
30    H11      2.2564   -2.8754    0.3968 H       1  LIG   0.1501   0.1500 
31    H12      1.8745   -0.6675    1.4101 H       1  LIG   0.1347   0.1500 
32    H13      3.2213    0.0452    3.3690 H       1  LIG   0.1331   0.1500 
33    H14      4.9230   -1.4377    4.2871 H       1  LIG   0.1249   0.1500 
@<TRIPOS>BOND
1     1     6     ar
2     1     2     ar
3     1     22    1
4     2     3     ar
5     2     23    1
6     3     4     ar
7     3     24    1
8     4     10    1
9     4     5     ar
10    5     6     ar
11    5     7     1
12    6     25    1
13    7     8     1
14    7     26    1
15    7     27    1
16    8     9     1
17    8     28    1
18    8     29    1
19    9     18    ar
20    9     10    ar
21    10    11    ar
22    11    12    ar
23    12    17    ar
24    12    13    ar
25    13    14    ar
26    13    30    1
27    14    15    ar
28    14    31    1
29    15    16    ar
30    15    32    1
31    16    17    ar
32    16    33    1
33    17    18    ar
34    18    19    1
35    19    20    1
36    19    21    1
@<TRIPOS>SUBSTRUCTURE
1   LIG    1    
 
########## Number      : 615
########## Name        : ZINC00003643
########## Description : AM1BCC_CHARGES =   1.0001 ORIGINAL_CHARGES =   1.0000

@<TRIPOS>MOLECULE
ZINC00003643
44    45    1     0     0    
SMALL
USER_CHARGES
****
****
@<TRIPOS>ATOM
1     C1       2.5007    0.2393  -11.6771 C.3     1  LIG  -0.1010   0.0000 
2     C2       1.6571   -0.9045  -11.1318 C.3     1  LIG  -0.1028   0.0000 
3     C3       1.7412   -1.0627   -9.5960 C.3     1  LIG   0.1299   0.5030 
4     C4       1.1950    0.1804   -8.8397 C.3     1  LIG   0.1774   0.4235 
5     C5       1.4279    0.1172   -7.3220 C.ar    1  LIG  -0.1391  -0.1435 
6     C6       2.7360    0.4872   -6.9257 C.ar    1  LIG  -0.1438  -0.1500 
7     C7       3.1359    0.4782   -5.5938 C.ar    1  LIG  -0.0898  -0.1500 
8     C8       2.2355    0.0948   -4.6134 C.ar    1  LIG   0.0664   0.0825 
9     C9       0.9268   -0.2648   -4.9562 C.ar    1  LIG   0.0768   0.1170 
10    C10      0.5085   -0.2728   -6.3132 C.ar    1  LIG  -0.1145   0.0284 
11    C11     -0.8762   -0.7065   -6.5633 C.2     1  LIG  -0.1029  -0.1784 
12    C12     -1.7157   -1.0369   -5.5766 C.2     1  LIG  -0.1882  -0.1356 
13    C13     -1.2915   -0.9808   -4.1643 C.2     1  LIG   0.6829   0.6156 
14    O1      -2.0818   -1.2654   -3.2684 O.2     1  LIG  -0.5741  -0.5700 
15    N1       0.0095   -0.6041   -3.9378 N.am    1  LIG  -0.4413  -0.5470 
16    O2       2.7069    0.0853   -3.3302 O.3     1  LIG  -0.4938  -0.5325 
17    O3      -0.1752    0.3513   -9.1643 O.3     1  LIG  -0.6197  -0.6800 
18    C14      1.6308   -3.2748   -8.3164 C.3     1  LIG   0.1294   0.5030 
19    C15      0.5667   -4.2095   -7.7531 C.3     1  LIG  -0.1353   0.0000 
20    C16      2.6745   -4.0514   -9.1112 C.3     1  LIG  -0.1293   0.0000 
21    H1       0.2966   -0.5508   -2.9684 H       1  LIG   0.3527   0.3700 
22    H2       2.1251   -0.4567   -2.7760 H       1  LIG   0.4275   0.4500 
23    H3      -0.4724    1.1812   -8.7509 H       1  LIG   0.4524   0.4000 
24    H4       2.5055    0.2113  -12.7717 H       1  LIG   0.0757   0.0000 
25    H5       2.1027    1.2126  -11.3770 H       1  LIG   0.0548   0.0000 
26    H6       3.5367    0.1640  -11.3323 H       1  LIG   0.0461   0.0000 
27    H7       0.6163   -0.7663  -11.4491 H       1  LIG   0.0855   0.0000 
28    H8       2.0071   -1.8323  -11.6028 H       1  LIG   0.0585   0.0000 
29    H9       2.8056   -1.2021   -9.3444 H       1  LIG   0.1101   0.0000 
30    H10      1.7451    1.0759   -9.1731 H       1  LIG   0.0943   0.0000 
31    H11      3.4691    0.7883   -7.6733 H       1  LIG   0.1448   0.1500 
32    H12      4.1514    0.7631   -5.3323 H       1  LIG   0.1746   0.1500 
33    H13     -1.2550   -0.7835   -7.5710 H       1  LIG   0.1449   0.1500 
34    H14     -2.7312   -1.3560   -5.7820 H       1  LIG   0.1801   0.1500 
35    H15      2.0995   -2.7127   -7.5030 H       1  LIG   0.1104   0.0000 
36    H16      1.0189   -4.9479   -7.0826 H       1  LIG   0.0973   0.0000 
37    H17     -0.1817   -3.6552   -7.1780 H       1  LIG   0.0673   0.0000 
38    H18      0.0456   -4.7516   -8.5499 H       1  LIG   0.0675   0.0000 
39    H19      3.1641   -4.7959   -8.4743 H       1  LIG   0.0962   0.0000 
40    H20      2.2228   -4.5802   -9.9578 H       1  LIG   0.0665   0.0000 
41    H21      3.4555   -3.3935   -9.5044 H       1  LIG   0.0627   0.0000 
42    N2       0.9469   -2.2850   -9.2228 N.4     1  LIG  -0.7654  -0.9060 
43    H22      0.0623   -1.9788   -8.7980 H       1  LIG   0.4635   0.4500 
44    H23      0.6497   -2.7851  -10.0726 H       1  LIG   0.4449   0.4500 
@<TRIPOS>BOND
1     1     2     1
2     1     24    1
3     1     25    1
4     1     26    1
5     2     3     1
6     2     27    1
7     2     28    1
8     3     4     1
9     3     29    1
10    3     42    1
11    4     5     1
12    4     17    1
13    4     30    1
14    5     10    ar
15    5     6     ar
16    6     7     ar
17    6     31    1
18    7     8     ar
19    7     32    1
20    8     9     ar
21    8     16    1
22    9     15    1
23    9     10    ar
24    10    11    1
25    11    12    2
26    11    33    1
27    12    13    1
28    12    34    1
29    13    14    2
30    13    15    am
31    15    21    1
32    16    22    1
33    17    23    1
34    18    19    1
35    18    20    1
36    18    35    1
37    18    42    1
38    19    36    1
39    19    37    1
40    19    38    1
41    20    39    1
42    20    40    1
43    20    41    1
44    42    43    1
45    42    44    1
@<TRIPOS>SUBSTRUCTURE
1   LIG    1    
 
########## Number      : 616
########## Name        : ZINC00003686
########## Description : AM1BCC_CHARGES =   0.0001 ORIGINAL_CHARGES =  -0.0000

@<TRIPOS>MOLECULE
ZINC00003686
32    34    1     0     0    
SMALL
USER_CHARGES
****
****
@<TRIPOS>ATOM
1     C1      -2.5520    2.7497   -5.6193 C.ar    1  LIG   0.6866   0.4700 
2     N1      -3.9050    2.7296   -5.5984 N.ar    1  LIG  -0.7980  -0.6200 
3     C2      -4.5379    2.6635   -4.3937 C.ar    1  LIG   0.7628   0.4100 
4     C3      -3.7340    2.6198   -3.2438 C.ar    1  LIG  -0.2357   0.2272 
5     C4      -2.3581    2.6461   -3.4172 C.ar    1  LIG   0.4607   0.1054 
6     N2      -1.6938    2.7119   -4.5818 N.ar    1  LIG  -0.7368  -0.5670 
7     N3      -1.8362    2.5918   -2.1510 N.pl3   1  LIG  -0.2562   0.0476 
8     C5      -2.8952    2.5422   -1.2817 C.2     1  LIG   0.3997   0.0365 
9     N4      -4.0526    2.5541   -1.9080 N.2     1  LIG  -0.5464  -0.5653 
10    C6      -0.4180    2.5980   -1.8157 C.3     1  LIG   0.0531   0.2556 
11    C7      -0.0471    1.4392   -0.8613 C.3     1  LIG  -0.0949   0.0000 
12    C8       0.2983    2.1051    0.4669 C.3     1  LIG  -0.0813   0.0000 
13    C9       0.8824    3.4473    0.0285 C.3     1  LIG  -0.0711   0.0000 
14    C10     -0.0394    3.8991   -1.0958 C.3     1  LIG  -0.0893   0.0000 
15    C11      0.8916    4.4547    1.1752 C.3     1  LIG   0.1382   0.2800 
16    O1       1.4675    5.6737    0.7255 O.3     1  LIG  -0.5995  -0.6800 
17    N5      -5.9175    2.6421   -4.3290 N.pl3   1  LIG  -0.9615  -0.9000 
18    H1       1.4661    6.2859    1.4810 H       1  LIG   0.4016   0.4000 
19    H2      -6.4539    2.6758   -5.1843 H       1  LIG   0.4433   0.4000 
20    H3      -6.3868    2.5935   -3.4351 H       1  LIG   0.4523   0.4000 
21    H4      -2.0999    2.8035   -6.6040 H       1  LIG   0.0507   0.1500 
22    H5      -2.7681    2.5005   -0.2086 H       1  LIG   0.0711   0.1500 
23    H6       0.1602    2.4480   -2.7411 H       1  LIG   0.0941   0.0000 
24    H7      -0.8231    0.6754   -0.7487 H       1  LIG   0.0587   0.0000 
25    H8       0.8486    0.9352   -1.2467 H       1  LIG   0.0576   0.0000 
26    H9      -0.6084    2.2436    1.0674 H       1  LIG   0.0411   0.0000 
27    H10      1.0072    1.5119    1.0526 H       1  LIG   0.0525   0.0000 
28    H11      1.9160    3.2765   -0.3176 H       1  LIG   0.0724   0.0000 
29    H12      0.4713    4.5892   -1.7765 H       1  LIG   0.0697   0.0000 
30    H13     -0.9165    4.4280   -0.7033 H       1  LIG   0.0583   0.0000 
31    H14     -0.1193    4.6603    1.5436 H       1  LIG   0.0228   0.0000 
32    H15      1.4933    4.0773    2.0088 H       1  LIG   0.0235   0.0000 
@<TRIPOS>BOND
1     1     6     ar
2     1     2     ar
3     1     21    1
4     2     3     ar
5     3     4     ar
6     3     17    1
7     4     9     1
8     4     5     ar
9     5     6     ar
10    5     7     1
11    7     8     1
12    7     10    1
13    8     9     2
14    8     22    1
15    10    14    1
16    10    11    1
17    10    23    1
18    11    12    1
19    11    24    1
20    11    25    1
21    12    13    1
22    12    26    1
23    12    27    1
24    13    14    1
25    13    15    1
26    13    28    1
27    14    29    1
28    14    30    1
29    15    16    1
30    15    31    1
31    15    32    1
32    16    18    1
33    17    19    1
34    17    20    1
@<TRIPOS>SUBSTRUCTURE
1   LIG    1    
 
########## Number      : 617
########## Name        : ZINC00003709
########## Description : AM1BCC_CHARGES =   0.0001 ORIGINAL_CHARGES =  -0.0000

@<TRIPOS>MOLECULE
ZINC00003709
25    26    1     0     0    
SMALL
USER_CHARGES
****
****
@<TRIPOS>ATOM
1     C1       3.6691   -8.9587    0.1800 C.ar    1  LIG  -0.1358  -0.1500 
2     C2       3.8945   -8.1948   -0.9592 C.ar    1  LIG  -0.1161  -0.1500 
3     C3       3.0767   -7.0950   -1.2423 C.ar    1  LIG  -0.1512  -0.1500 
4     C4       2.0166   -6.7235   -0.3937 C.ar    1  LIG   0.0879   0.1000 
5     C5       1.8095   -7.5235    0.7482 C.ar    1  LIG  -0.1286  -0.1500 
6     C6       2.6243   -8.6245    1.0333 C.ar    1  LIG  -0.1173  -0.1500 
7     N1       1.1899   -5.6225   -0.6774 N.pl3   1  LIG  -0.3866  -0.4891 
8     C7       1.1357   -5.0316   -2.0065 C.3     1  LIG   0.1516   0.3691 
9     C8      -0.1759   -4.2810   -2.1609 C.3     1  LIG  -0.0827   0.0000 
10    C9      -0.2605   -3.1997   -1.1049 C.3     1  LIG  -0.1492   0.0610 
11    C10      0.0037   -3.7254    0.2869 C.2     1  LIG   0.6759   0.5690 
12    O1      -0.3991   -3.1057    1.2740 O.2     1  LIG  -0.6195  -0.5700 
13    N2       0.7657   -4.8623    0.4108 N.am    1  LIG  -0.3987  -0.4100 
14    H1       1.0209   -5.1964    1.3329 H       1  LIG   0.3069   0.3700 
15    H2       4.3024   -9.8129    0.3995 H       1  LIG   0.1352   0.1500 
16    H3       4.7089   -8.4499   -1.6315 H       1  LIG   0.1337   0.1500 
17    H4       3.3022   -6.5212   -2.1380 H       1  LIG   0.1347   0.1500 
18    H5       0.9847   -7.3191    1.4275 H       1  LIG   0.1379   0.1500 
19    H6       2.4345   -9.2226    1.9202 H       1  LIG   0.1355   0.1500 
20    H7       1.9891   -4.3600   -2.1606 H       1  LIG   0.0379   0.0000 
21    H8       1.1684   -5.8071   -2.7813 H       1  LIG   0.0709   0.0000 
22    H9      -0.2452   -3.8380   -3.1603 H       1  LIG   0.0565   0.0000 
23    H10     -1.0181   -4.9757   -2.0492 H       1  LIG   0.0620   0.0000 
24    H11      0.4758   -2.4127   -1.3054 H       1  LIG   0.0765   0.0000 
25    H12     -1.2563   -2.7437   -1.1231 H       1  LIG   0.0827   0.0000 
@<TRIPOS>BOND
1     1     6     ar
2     1     2     ar
3     1     15    1
4     2     3     ar
5     2     16    1
6     3     4     ar
7     3     17    1
8     4     5     ar
9     4     7     1
10    5     6     ar
11    5     18    1
12    6     19    1
13    7     13    1
14    7     8     1
15    8     9     1
16    8     20    1
17    8     21    1
18    9     10    1
19    9     22    1
20    9     23    1
21    10    11    1
22    10    24    1
23    10    25    1
24    11    12    2
25    11    13    am
26    13    14    1
@<TRIPOS>SUBSTRUCTURE
1   LIG    1    
 
########## Number      : 618
########## Name        : ZINC00003710
########## Description : AM1BCC_CHARGES =   0.0001 ORIGINAL_CHARGES =  -0.0000

@<TRIPOS>MOLECULE
ZINC00003710
25    26    1     0     0    
SMALL
USER_CHARGES
****
****
@<TRIPOS>ATOM
1     C1       4.3843   -8.4611   -0.4454 C.ar    1  LIG  -0.1348  -0.1500 
2     C2       4.7219   -7.1134   -0.4103 C.ar    1  LIG  -0.1182  -0.1500 
3     C3       3.7248   -6.1369   -0.5093 C.ar    1  LIG  -0.1273  -0.1500 
4     C4       2.3636   -6.4777   -0.6422 C.ar    1  LIG   0.0858   0.1000 
5     C5       2.0567   -7.8510   -0.6845 C.ar    1  LIG  -0.1495  -0.1500 
6     C6       3.0515   -8.8303   -0.5842 C.ar    1  LIG  -0.1168  -0.1500 
7     N1       1.3676   -5.4912   -0.7476 N.pl3   1  LIG  -0.3869  -0.4891 
8     C7       0.0407   -5.7986   -1.2611 C.3     1  LIG   0.1517   0.3691 
9     C8      -0.6009   -4.5194   -1.7707 C.3     1  LIG  -0.0825   0.0000 
10    C9      -0.6981   -3.5223   -0.6359 C.3     1  LIG  -0.1492   0.0610 
11    C10      0.6190   -3.3247    0.0779 C.2     1  LIG   0.6760   0.5690 
12    O1       0.8238   -2.3022    0.7361 O.2     1  LIG  -0.6200  -0.5700 
13    N2       1.5358   -4.3473    0.0302 N.am    1  LIG  -0.3991  -0.4100 
14    H1       2.3967   -4.2735    0.5598 H       1  LIG   0.3071   0.3700 
15    H2       5.1568   -9.2203   -0.3690 H       1  LIG   0.1352   0.1500 
16    H3       5.7622   -6.8161   -0.3128 H       1  LIG   0.1356   0.1500 
17    H4       4.0392   -5.0955   -0.5090 H       1  LIG   0.1386   0.1500 
18    H5       1.0279   -8.1906   -0.7778 H       1  LIG   0.1349   0.1500 
19    H6       2.7795   -9.8817   -0.6130 H       1  LIG   0.1338   0.1500 
20    H7       0.0992   -6.4995   -2.1025 H       1  LIG   0.0707   0.0000 
21    H8      -0.5747   -6.2575   -0.4776 H       1  LIG   0.0379   0.0000 
22    H9       0.0032   -4.0982   -2.5843 H       1  LIG   0.0620   0.0000 
23    H10     -1.5971   -4.7286   -2.1751 H       1  LIG   0.0563   0.0000 
24    H11     -1.0343   -2.5545   -1.0234 H       1  LIG   0.0826   0.0000 
25    H12     -1.4286   -3.8613    0.1078 H       1  LIG   0.0762   0.0000 
@<TRIPOS>BOND
1     1     6     ar
2     1     2     ar
3     1     15    1
4     2     3     ar
5     2     16    1
6     3     4     ar
7     3     17    1
8     4     5     ar
9     4     7     1
10    5     6     ar
11    5     18    1
12    6     19    1
13    7     13    1
14    7     8     1
15    8     9     1
16    8     20    1
17    8     21    1
18    9     10    1
19    9     22    1
20    9     23    1
21    10    11    1
22    10    24    1
23    10    25    1
24    11    12    2
25    11    13    am
26    13    14    1
@<TRIPOS>SUBSTRUCTURE
1   LIG    1    
 
########## Number      : 619
########## Name        : ZINC00003712
########## Description : AM1BCC_CHARGES =   0.0001 ORIGINAL_CHARGES =   0.0000

@<TRIPOS>MOLECULE
ZINC00003712
29    30    1     0     0    
SMALL
USER_CHARGES
****
****
@<TRIPOS>ATOM
1     C1       7.2717   -3.0743    1.8085 C.3     1  LIG  -0.0752   0.1382 
2     C2       5.9588   -3.7825    1.9803 C.2     1  LIG   0.1556  -0.0382 
3     C3       5.3200   -3.7774    3.1631 C.2     1  LIG  -0.3194  -0.1356 
4     C4       4.0217   -4.4916    3.2894 C.2     1  LIG   0.5925   0.4694 
5     C5       3.5003   -5.1787    2.0823 C.ar    1  LIG  -0.2556   0.0862 
6     C6       2.2931   -5.8674    2.1224 C.ar    1  LIG  -0.0049  -0.1500 
7     C7       1.8236   -6.5071    0.9692 C.ar    1  LIG  -0.2449  -0.1500 
8     C8       2.5325   -6.4831   -0.2501 C.ar    1  LIG   0.2549   0.1000 
9     C9       3.7528   -5.7725   -0.2455 C.ar    1  LIG  -0.2910  -0.1500 
10    C10      4.2433   -5.1233    0.8991 C.ar    1  LIG   0.2340   0.1000 
11    N1       5.4584   -4.4266    0.8699 N.pl3   1  LIG  -0.6235  -0.6000 
12    N2       2.0553   -7.1241   -1.3934 N.pl3   1  LIG  -0.7003  -0.8382 
13    C11      2.8033   -7.0873   -2.6438 C.3     1  LIG   0.2141   0.3691 
14    C12      0.7924   -7.8518   -1.3740 C.3     1  LIG   0.2138   0.3691 
15    O1       3.4148   -4.5059    4.3530 O.2     1  LIG  -0.5842  -0.5700 
16    H1       5.9899   -4.3914    0.0096 H       1  LIG   0.4447   0.4000 
17    H2       7.6034   -2.5877    2.7319 H       1  LIG   0.0675   0.0000 
18    H3       8.0499   -3.7836    1.5073 H       1  LIG   0.0538   0.0000 
19    H4       7.1892   -2.3023    1.0361 H       1  LIG   0.0536   0.0000 
20    H5       5.7056   -3.2739    4.0413 H       1  LIG   0.1580   0.1500 
21    H6       1.7047   -5.9192    3.0344 H       1  LIG   0.1576   0.1500 
22    H7       0.8746   -7.0316    1.0538 H       1  LIG   0.1376   0.1500 
23    H8       4.3539   -5.7110   -1.1502 H       1  LIG   0.1320   0.1500 
24    H9       2.2930   -7.6377   -3.4417 H       1  LIG   0.0467   0.0000 
25    H10      2.9231   -6.0570   -2.9967 H       1  LIG   0.0337   0.0000 
26    H11      3.7896   -7.5483   -2.5223 H       1  LIG   0.0311   0.0000 
27    H12      0.5617   -8.2959   -2.3485 H       1  LIG   0.0454   0.0000 
28    H13      0.8272   -8.6746   -0.6515 H       1  LIG   0.0347   0.0000 
29    H14     -0.0394   -7.1833   -1.1260 H       1  LIG   0.0378   0.0000 
@<TRIPOS>BOND
1     1     2     1
2     1     17    1
3     1     18    1
4     1     19    1
5     2     11    1
6     2     3     2
7     3     20    1
8     3     4     1
9     4     15    2
10    4     5     1
11    5     6     ar
12    5     10    ar
13    6     7     ar
14    6     21    1
15    7     8     ar
16    7     22    1
17    8     9     ar
18    8     12    1
19    9     10    ar
20    9     23    1
21    10    11    1
22    11    16    1
23    12    13    1
24    12    14    1
25    13    24    1
26    13    25    1
27    13    26    1
28    14    27    1
29    14    28    1
30    14    29    1
@<TRIPOS>SUBSTRUCTURE
1   LIG    1    
 
########## Number      : 620
########## Name        : ZINC00003820
########## Description : AM1BCC_CHARGES =  -0.0001 ORIGINAL_CHARGES =   0.0000

@<TRIPOS>MOLECULE
ZINC00003820
27    28    1     0     0    
SMALL
USER_CHARGES
****
****
@<TRIPOS>ATOM
1     C1      -5.0211    1.5527   -3.5844 C.3     1  LIG   0.1080   0.2800 
2     O1      -4.1597    2.0519   -4.6001 O.3     1  LIG  -0.3019  -0.3625 
3     C2      -3.0633    2.7673   -4.1940 C.ar    1  LIG   0.1041   0.0825 
4     C3      -2.7563    3.0882   -2.8668 C.ar    1  LIG  -0.1353  -0.1500 
5     C4      -1.5989    3.8218   -2.5586 C.ar    1  LIG  -0.0993   0.0284 
6     C5      -0.7575    4.2537   -3.5895 C.ar    1  LIG  -0.0984  -0.1500 
7     C6      -1.0565    3.9423   -4.9147 C.ar    1  LIG  -0.1928  -0.1500 
8     C7      -2.2025    3.2028   -5.2087 C.ar    1  LIG   0.1193   0.0825 
9     O2      -2.4984    2.8947   -6.5108 O.3     1  LIG  -0.4710  -0.5325 
10    C8      -1.2749    4.1774   -1.1734 C.2     1  LIG   0.0642  -0.1784 
11    C9      -0.9549    3.3113   -0.2058 C.2     1  LIG  -0.3139   0.0288 
12    C10     -0.8229    1.8421   -0.2546 C.2     1  LIG   0.5615   0.5412 
13    O3      -0.9756    1.0954   -1.1988 O.2     1  LIG  -0.4910  -0.5700 
14    C11     -0.4444    1.4331    1.1134 C.2     1  LIG  -0.1888  -0.1356 
15    C12     -0.3420    2.5005    1.9161 C.2     1  LIG  -0.1907  -0.1356 
16    C13     -0.6433    3.7389    1.1719 C.2     1  LIG   0.5578   0.5412 
17    O4      -0.6317    4.8658    1.6234 O.2     1  LIG  -0.5023  -0.5700 
18    H1      -1.8066    3.2639   -7.0851 H       1  LIG   0.4168   0.4500 
19    H2      -5.8204    0.9872   -4.0731 H       1  LIG   0.0700   0.0000 
20    H3      -4.4897    0.8671   -2.9161 H       1  LIG   0.0400   0.0000 
21    H4      -5.4871    2.3711   -3.0259 H       1  LIG   0.0302   0.0000 
22    H5      -3.4045    2.7772   -2.0522 H       1  LIG   0.1479   0.1500 
23    H6       0.1373    4.8317   -3.3702 H       1  LIG   0.1389   0.1500 
24    H7      -0.3921    4.2807   -5.7046 H       1  LIG   0.1394   0.1500 
25    H8      -1.2946    5.2447   -0.9630 H       1  LIG   0.1513   0.1500 
26    H9      -0.2776    0.4052    1.3927 H       1  LIG   0.1677   0.1500 
27    H10     -0.0786    2.4923    2.9614 H       1  LIG   0.1682   0.1500 
@<TRIPOS>BOND
1     1     2     1
2     1     19    1
3     1     20    1
4     1     21    1
5     2     3     1
6     3     8     ar
7     3     4     ar
8     4     5     ar
9     4     22    1
10    5     6     ar
11    5     10    1
12    6     7     ar
13    6     23    1
14    7     8     ar
15    7     24    1
16    8     9     1
17    9     18    1
18    10    11    2
19    10    25    1
20    11    16    1
21    11    12    1
22    12    13    2
23    12    14    1
24    14    15    2
25    14    26    1
26    15    16    1
27    15    27    1
28    16    17    2
@<TRIPOS>SUBSTRUCTURE
1   LIG    1    
 
########## Number      : 621
########## Name        : ZINC00003827
########## Description : AM1BCC_CHARGES =  -0.0001 ORIGINAL_CHARGES =  -0.0000

@<TRIPOS>MOLECULE
ZINC00003827
30    33    1     0     0    
SMALL
USER_CHARGES
****
****
@<TRIPOS>ATOM
1     C1       2.1189   -9.4277    1.0400 C.ar    1  LIG  -0.1131  -0.1500 
2     C2       1.7075  -10.6443    0.4563 C.ar    1  LIG  -0.1303  -0.1500 
3     C3       0.9853  -10.6606   -0.7407 C.ar    1  LIG  -0.0599  -0.1500 
4     C4       0.6976   -9.4407   -1.3171 C.ar    1  LIG  -0.1482   0.0862 
5     C5       1.1035   -8.2428   -0.7410 C.ar    1  LIG  -0.1164   0.0862 
6     C6       1.8165   -8.2025    0.4387 C.ar    1  LIG  -0.0804  -0.1500 
7     C7       0.6371   -7.1707   -1.6017 C.2     1  LIG   0.5134   0.4238 
8     N1       0.8098   -5.9055   -1.4180 N.2     1  LIG  -0.5619  -0.6290 
9     C8       0.2662   -5.0377   -2.3896 C.ar    1  LIG   0.0832   0.1790 
10    C9       0.4346   -3.6605   -2.2268 C.ar    1  LIG  -0.0528  -0.1500 
11    C10     -0.0864   -2.7637   -3.1635 C.ar    1  LIG  -0.1932  -0.1500 
12    C11     -0.7922   -3.2234   -4.2797 C.ar    1  LIG   0.1547   0.1000 
13    C12     -0.9552   -4.6029   -4.4492 C.ar    1  LIG  -0.1850  -0.1500 
14    C13     -0.4356   -5.5107   -3.5143 C.ar    1  LIG  -0.0770  -0.1435 
15    C14     -0.6274   -6.9883   -3.7157 C.3     1  LIG   0.1587   0.4436 
16    N2      -0.0231   -7.7614   -2.6491 N.am    1  LIG  -0.4464  -0.4201 
17    C15     -0.0314   -9.1312   -2.5517 C.2     1  LIG   0.7322   0.5438 
18    O1      -0.5182   -9.9646   -3.2920 O.2     1  LIG  -0.5867  -0.5700 
19    N3      -1.2921   -2.3322   -5.2163 N.pl3   1  LIG  -0.8228  -0.9000 
20    H1      -1.2020   -1.3352   -5.0729 H       1  LIG   0.3960   0.4000 
21    H2      -1.8315   -2.6654   -6.0040 H       1  LIG   0.3956   0.4000 
22    H3       2.6794   -9.4459    1.9715 H       1  LIG   0.1404   0.1500 
23    H4       1.9571  -11.5821    0.9467 H       1  LIG   0.1411   0.1500 
24    H5       0.6686  -11.5945   -1.1903 H       1  LIG   0.1567   0.1500 
25    H6       2.1318   -7.2669    0.8858 H       1  LIG   0.1595   0.1500 
26    H7       0.9767   -3.2763   -1.3662 H       1  LIG   0.1488   0.1500 
27    H8       0.0642   -1.6974   -3.0115 H       1  LIG   0.1360   0.1500 
28    H9      -1.4930   -4.9793   -5.3172 H       1  LIG   0.1369   0.1500 
29    H10     -1.6936   -7.2402   -3.7457 H       1  LIG   0.0597   0.0000 
30    H11     -0.1741   -7.3128   -4.6592 H       1  LIG   0.0611   0.0000 
@<TRIPOS>BOND
1     1     6     ar
2     1     2     ar
3     1     22    1
4     2     3     ar
5     2     23    1
6     3     4     ar
7     3     24    1
8     4     17    1
9     4     5     ar
10    5     6     ar
11    5     7     1
12    6     25    1
13    7     16    1
14    7     8     2
15    8     9     1
16    9     14    ar
17    9     10    ar
18    10    11    ar
19    10    26    1
20    11    12    ar
21    11    27    1
22    12    13    ar
23    12    19    1
24    13    14    ar
25    13    28    1
26    14    15    1
27    15    16    1
28    15    29    1
29    15    30    1
30    16    17    am
31    17    18    2
32    19    20    1
33    19    21    1
@<TRIPOS>SUBSTRUCTURE
1   LIG    1    
 
########## Number      : 622
########## Name        : ZINC00003866
########## Description : AM1BCC_CHARGES =   0.0003 ORIGINAL_CHARGES =   0.0000

@<TRIPOS>MOLECULE
ZINC00003866
47    50    1     0     0    
SMALL
USER_CHARGES
****
****
@<TRIPOS>ATOM
1     C1      -6.5555    8.0501    2.1447 C.3     1  LIG  -0.0839   0.0000 
2     C2      -6.8911    7.9861    3.6478 C.3     1  LIG  -0.1533   0.0610 
3     C3      -8.1866    7.2009    3.8576 C.3     1  LIG  -0.0569   0.0000 
4     C4      -8.0032    5.7018    3.5313 C.3     1  LIG  -0.0729   0.0000 
5     C5      -6.7759    5.0494    4.2434 C.3     1  LIG  -0.0113   0.1435 
6     C6      -6.5018    3.6225    3.7698 C.ar    1  LIG  -0.0993  -0.1435 
7     C7      -7.5572    2.7752    3.3796 C.ar    1  LIG  -0.0673  -0.1500 
8     C8      -7.3413    1.4477    2.9872 C.ar    1  LIG  -0.2081  -0.1500 
9     C9      -6.0583    0.9124    2.9863 C.ar    1  LIG   0.1748   0.0825 
10    C10     -5.0107    1.7446    3.4037 C.ar    1  LIG  -0.1905   0.1330 
11    C11     -5.1948    3.0851    3.8153 C.ar    1  LIG   0.0117  -0.1435 
12    C12     -4.0083    3.9247    4.2431 C.3     1  LIG  -0.0583   0.1435 
13    C13     -4.3644    5.2811    4.8467 C.3     1  LIG  -0.0722   0.0000 
14    C14     -5.5053    5.9135    4.0444 C.3     1  LIG  -0.0485   0.0000 
15    C15     -5.8283    7.3270    4.5264 C.3     1  LIG  -0.0636   0.0000 
16    C16     -4.7289    8.3844    4.6246 C.3     1  LIG  -0.0725   0.0000 
17    C17     -5.5396    9.6854    4.8447 C.3     1  LIG  -0.1878   0.0610 
18    C18     -6.8902    9.3847    4.1977 C.2     1  LIG   0.5769   0.4480 
19    O1      -7.8145   10.1805    4.1224 O.2     1  LIG  -0.5173  -0.5700 
20    N1      -3.6741    1.1892    3.4051 N.pl3   1  LIG   0.3238   0.9070 
21    O2      -2.9876    1.3803    2.3932 O.2     1  LIG  -0.1985  -0.5200 
22    O3      -3.3252    0.5719    4.4195 O.3     1  LIG  -0.1946  -0.5200 
23    O4      -5.7396   -0.3654    2.6135 O.3     1  LIG  -0.3158  -0.3625 
24    C19     -6.8048   -1.2046    2.1833 C.3     1  LIG   0.1148   0.2800 
25    H1      -5.6325    8.6091    1.9562 H       1  LIG   0.0398   0.0000 
26    H2      -6.4461    7.0688    1.6770 H       1  LIG   0.0471   0.0000 
27    H3      -7.3501    8.5784    1.6035 H       1  LIG   0.0492   0.0000 
28    H4      -8.5225    7.3009    4.8985 H       1  LIG   0.0484   0.0000 
29    H5      -8.9951    7.6130    3.2413 H       1  LIG   0.0591   0.0000 
30    H6      -8.9267    5.1934    3.8329 H       1  LIG   0.0407   0.0000 
31    H7      -7.9201    5.5704    2.4454 H       1  LIG   0.0491   0.0000 
32    H8      -7.0541    5.0270    5.3137 H       1  LIG   0.0615   0.0000 
33    H9      -8.5853    3.1270    3.3780 H       1  LIG   0.1442   0.1500 
34    H10     -8.2084    0.8644    2.6923 H       1  LIG   0.1497   0.1500 
35    H11     -3.4048    3.3785    4.9773 H       1  LIG   0.0724   0.0000 
36    H12     -3.3830    4.0957    3.3572 H       1  LIG   0.0739   0.0000 
37    H13     -4.6643    5.1545    5.8951 H       1  LIG   0.0491   0.0000 
38    H14     -3.4711    5.9154    4.8448 H       1  LIG   0.0532   0.0000 
39    H15     -5.1632    5.9195    2.9974 H       1  LIG   0.0659   0.0000 
40    H16     -6.1548    7.1952    5.5765 H       1  LIG   0.0522   0.0000 
41    H17     -4.0386    8.2066    5.4548 H       1  LIG   0.0525   0.0000 
42    H18     -4.1413    8.4426    3.7021 H       1  LIG   0.0509   0.0000 
43    H19     -5.6951    9.8712    5.9114 H       1  LIG   0.0759   0.0000 
44    H20     -5.0582   10.5406    4.3655 H       1  LIG   0.0774   0.0000 
45    H21     -6.3774   -2.1764    1.9184 H       1  LIG   0.0799   0.0000 
46    H22     -7.5281   -1.3681    2.9890 H       1  LIG   0.0395   0.0000 
47    H23     -7.2902   -0.7999    1.2892 H       1  LIG   0.0393   0.0000 
@<TRIPOS>BOND
1     1     2     1
2     1     25    1
3     1     26    1
4     1     27    1
5     2     15    1
6     2     18    1
7     2     3     1
8     3     4     1
9     3     28    1
10    3     29    1
11    4     5     1
12    4     30    1
13    4     31    1
14    5     14    1
15    5     6     1
16    5     32    1
17    6     11    ar
18    6     7     ar
19    7     8     ar
20    7     33    1
21    8     9     ar
22    8     34    1
23    9     10    ar
24    9     23    1
25    10    11    ar
26    10    20    1
27    11    12    1
28    12    13    1
29    12    35    1
30    12    36    1
31    13    14    1
32    13    37    1
33    13    38    1
34    14    15    1
35    14    39    1
36    15    16    1
37    15    40    1
38    16    17    1
39    16    41    1
40    16    42    1
41    17    18    1
42    17    43    1
43    17    44    1
44    18    19    2
45    20    21    2
46    20    22    1
47    23    24    1
48    24    45    1
49    24    46    1
50    24    47    1
@<TRIPOS>SUBSTRUCTURE
1   LIG    1    
 
########## Number      : 623
########## Name        : ZINC00003868
########## Description : AM1BCC_CHARGES =   0.0000 ORIGINAL_CHARGES =   0.0000

@<TRIPOS>MOLECULE
ZINC00003868
22    22    1     0     0    
SMALL
USER_CHARGES
****
****
@<TRIPOS>ATOM
1     C1       5.1777   -7.8186   -0.4228 C.3     1  LIG   0.1142   0.2800 
2     O1       5.5734   -6.5285   -0.8962 O.3     1  LIG  -0.3228  -0.3625 
3     C2       4.5740   -5.6081   -0.6824 C.ar    1  LIG   0.1557   0.0825 
4     C3       4.5695   -4.8386    0.4943 C.ar    1  LIG  -0.1137   0.1770 
5     C4       3.5503   -3.8908    0.6813 C.ar    1  LIG   0.4268   0.1665 
6     N1       2.6018   -3.7083   -0.2789 N.ar    1  LIG  -0.7007  -0.6200 
7     C5       2.6482   -4.4299   -1.4239 C.ar    1  LIG   0.6525   0.3925 
8     C6       3.6201   -5.3836   -1.6745 C.ar    1  LIG  -0.1147   0.1770 
9     Cl1      3.6609   -6.2419   -3.1727 Cl      1  LIG  -0.0214  -0.1770 
10    O2       1.6905   -4.2118   -2.3996 O.3     1  LIG  -0.4288  -0.3625 
11    C7       0.7295   -3.2153   -2.0628 C.3     1  LIG   0.1245   0.2800 
12    C8       3.4171   -3.0070    1.9169 C.3     1  LIG   0.2134   1.0135 
13    Cl2      4.8277   -1.9139    2.0840 Cl      1  LIG  -0.0974  -0.2900 
14    Cl3      1.9616   -1.9284    1.8326 Cl      1  LIG  -0.0833  -0.2900 
15    Cl4      3.2055   -3.9927    3.3996 Cl      1  LIG  -0.1046  -0.2900 
16    Cl5      5.8429   -5.0828    1.6460 Cl      1  LIG  -0.0273  -0.1770 
17    H1       4.3137   -8.2003   -0.9764 H       1  LIG   0.0398   0.0000 
18    H2       6.0142   -8.5044   -0.5869 H       1  LIG   0.0750   0.0000 
19    H3       4.9575   -7.8038    0.6499 H       1  LIG   0.0403   0.0000 
20    H4       0.0291   -3.1303   -2.8990 H       1  LIG   0.0685   0.0000 
21    H5       0.1578   -3.5033   -1.1740 H       1  LIG   0.0511   0.0000 
22    H6       1.2062   -2.2390   -1.9237 H       1  LIG   0.0529   0.0000 
@<TRIPOS>BOND
1     1     2     1
2     1     17    1
3     1     18    1
4     1     19    1
5     2     3     1
6     3     8     ar
7     3     4     ar
8     4     5     ar
9     4     16    1
10    5     6     ar
11    5     12    1
12    6     7     ar
13    7     8     ar
14    7     10    1
15    8     9     1
16    10    11    1
17    11    20    1
18    11    21    1
19    11    22    1
20    12    13    1
21    12    14    1
22    12    15    1
@<TRIPOS>SUBSTRUCTURE
1   LIG    1    
 
########## Number      : 624
########## Name        : ZINC00003874
########## Description : AM1BCC_CHARGES =   0.0002 ORIGINAL_CHARGES =  -0.0000

@<TRIPOS>MOLECULE
ZINC00003874
29    31    1     0     0    
SMALL
USER_CHARGES
****
****
@<TRIPOS>ATOM
1     C1       1.9811   -5.3772    3.0291 C.2     1  LIG   0.4961   0.4500 
2     N1       1.7980   -6.7307    2.7403 N.am    1  LIG  -0.4961  -0.4900 
3     C2       2.2973   -7.3499    1.5901 C.2     1  LIG   0.6336   0.7160 
4     O1       2.1477   -8.5342    1.3151 O.2     1  LIG  -0.5926  -0.5700 
5     C3       3.0144   -6.4121    0.7621 C.2     1  LIG   0.2087   0.1412 
6     C4       3.1230   -5.1003    1.1680 C.2     1  LIG   0.0641  -0.0256 
7     N2       2.6262   -4.5234    2.2893 N.2     1  LIG  -0.6093  -0.5760 
8     N3       3.8452   -4.4883    0.1798 N.pl3   1  LIG  -0.2091   0.0476 
9     C5       4.1243   -5.4504   -0.7605 C.2     1  LIG   0.4138   0.0365 
10    N4       3.6345   -6.6302   -0.4329 N.2     1  LIG  -0.5929  -0.5653 
11    C6       4.2178   -3.0822    0.1424 C.3     1  LIG   0.2579   0.5356 
12    C7       3.1568   -2.2100   -0.5323 C.3     1  LIG  -0.1164   0.0000 
13    C8       3.7016   -2.0417   -1.9322 C.3     1  LIG  -0.1058   0.0000 
14    C9       5.1981   -2.0179   -1.6622 C.3     1  LIG   0.0890   0.2800 
15    O2       5.4331   -2.9384   -0.5984 O.3     1  LIG  -0.4253  -0.5600 
16    C10      6.0172   -2.4227   -2.8804 C.3     1  LIG   0.1249   0.2800 
17    O3       7.4029   -2.2441   -2.6053 O.3     1  LIG  -0.5916  -0.6800 
18    H1       1.2750   -7.3046    3.3935 H       1  LIG   0.3394   0.3700 
19    H2       7.6004   -2.7483   -1.7965 H       1  LIG   0.4145   0.4000 
20    H3       1.5130   -5.0755    3.9790 H       1  LIG   0.0562   0.0600 
21    H4       4.6843   -5.2393   -1.6612 H       1  LIG   0.0712   0.1500 
22    H5       4.3507   -2.7526    1.1841 H       1  LIG   0.1082   0.0000 
23    H6       2.1458   -2.6276   -0.5107 H       1  LIG   0.0792   0.0000 
24    H7       3.1261   -1.2299   -0.0402 H       1  LIG   0.0699   0.0000 
25    H8       3.4238   -2.9081   -2.5439 H       1  LIG   0.0620   0.0000 
26    H9       3.3425   -1.1377   -2.4319 H       1  LIG   0.0672   0.0000 
27    H10      5.4882   -0.9981   -1.3593 H       1  LIG   0.0796   0.0000 
28    H11      5.8634   -3.4752   -3.1388 H       1  LIG   0.0290   0.0000 
29    H12      5.7649   -1.8056   -3.7479 H       1  LIG   0.0748   0.0000 
@<TRIPOS>BOND
1     1     7     2
2     1     2     1
3     1     20    1
4     2     3     am
5     2     18    1
6     3     4     2
7     3     5     1
8     5     10    1
9     5     6     2
10    6     7     1
11    6     8     1
12    8     9     1
13    8     11    1
14    9     10    2
15    9     21    1
16    11    15    1
17    11    12    1
18    11    22    1
19    12    13    1
20    12    23    1
21    12    24    1
22    13    14    1
23    13    25    1
24    13    26    1
25    14    15    1
26    14    16    1
27    14    27    1
28    16    17    1
29    16    28    1
30    16    29    1
31    17    19    1
@<TRIPOS>SUBSTRUCTURE
1   LIG    1    
 
########## Number      : 625
########## Name        : ZINC00003911
########## Description : AM1BCC_CHARGES =   1.0000 ORIGINAL_CHARGES =   1.0000

@<TRIPOS>MOLECULE
ZINC00003911
46    47    1     0     0    
SMALL
USER_CHARGES
****
****
@<TRIPOS>ATOM
1     C1       0.4351   -7.5530    3.1449 C.3     1  LIG  -0.1381   0.0000 
2     C2       1.8164   -6.8909    3.1031 C.3     1  LIG   0.1297   0.5030 
3     C3       2.5924   -7.3628    1.8594 C.3     1  LIG  -0.1075   0.0000 
4     C4       3.4655   -6.2560    1.2529 C.3     1  LIG  -0.0257   0.1435 
5     C5       4.2738   -6.7653    0.0861 C.ar    1  LIG  -0.1567  -0.1435 
6     C6       3.7498   -6.7263   -1.2140 C.ar    1  LIG  -0.0750  -0.1500 
7     C7       4.4911   -7.2139   -2.2915 C.ar    1  LIG  -0.2080  -0.1500 
8     C8       5.7584   -7.7463   -2.0674 C.ar    1  LIG   0.1499   0.0825 
9     C9       6.2918   -7.7985   -0.7831 C.ar    1  LIG  -0.1501  -0.1500 
10    C10      5.5491   -7.3105    0.2926 C.ar    1  LIG  -0.0908  -0.1500 
11    O1       6.5111   -8.2328   -3.0986 O.3     1  LIG  -0.4827  -0.5325 
12    C11      3.8361   -6.5764    4.6318 C.3     1  LIG   0.0989   0.5030 
13    C12      4.2915   -6.9211    6.0465 C.3     1  LIG  -0.0450   0.1435 
14    C13      5.6045   -6.2561    6.3717 C.ar    1  LIG  -0.1265  -0.1435 
15    C14      5.6298   -4.9918    6.9805 C.ar    1  LIG  -0.1133  -0.1500 
16    C15      6.8445   -4.3629    7.2649 C.ar    1  LIG  -0.1647  -0.1500 
17    C16      8.0392   -4.9967    6.9351 C.ar    1  LIG   0.0748   0.0825 
18    C17      8.0228   -6.2478    6.3253 C.ar    1  LIG   0.1260   0.0825 
19    C18      6.8154   -6.8801    6.0402 C.ar    1  LIG  -0.1320  -0.1500 
20    O2       9.1846   -6.8845    5.9901 O.3     1  LIG  -0.4842  -0.5325 
21    O3       9.2447   -4.4093    7.1983 O.3     1  LIG  -0.5010  -0.5325 
22    H1       6.0100   -8.1267   -3.9252 H       1  LIG   0.4309   0.4500 
23    H2       9.9189   -6.3047    6.2618 H       1  LIG   0.4521   0.4500 
24    H3       9.0843   -3.5495    7.6240 H       1  LIG   0.4441   0.4500 
25    H4      -0.1545   -7.2746    2.2649 H       1  LIG   0.1009   0.0000 
26    H5       0.5160   -8.6454    3.1681 H       1  LIG   0.0703   0.0000 
27    H6      -0.1241   -7.2354    4.0317 H       1  LIG   0.0623   0.0000 
28    H7       1.6563   -5.8009    3.0835 H       1  LIG   0.1068   0.0000 
29    H8       3.2003   -8.2466    2.0934 H       1  LIG   0.0663   0.0000 
30    H9       1.8847   -7.6861    1.0839 H       1  LIG   0.0957   0.0000 
31    H10      2.8305   -5.4253    0.9186 H       1  LIG   0.0614   0.0000 
32    H11      4.1447   -5.8250    1.9949 H       1  LIG   0.0390   0.0000 
33    H12      2.7592   -6.3158   -1.3945 H       1  LIG   0.1339   0.1500 
34    H13      4.0704   -7.1739   -3.2919 H       1  LIG   0.1478   0.1500 
35    H14      7.2798   -8.2169   -0.6132 H       1  LIG   0.1633   0.1500 
36    H15      5.9713   -7.3583    1.2933 H       1  LIG   0.1244   0.1500 
37    H16      4.5655   -6.9191    3.8922 H       1  LIG   0.1145   0.0000 
38    H17      3.6579   -5.5022    4.5155 H       1  LIG   0.1077   0.0000 
39    H18      3.5338   -6.6133    6.7785 H       1  LIG   0.0675   0.0000 
40    H19      4.3959   -8.0077    6.1615 H       1  LIG   0.0698   0.0000 
41    H20      4.7012   -4.4876    7.2378 H       1  LIG   0.1359   0.1500 
42    H21      6.8421   -3.3856    7.7388 H       1  LIG   0.1532   0.1500 
43    H22      6.8181   -7.8559    5.5608 H       1  LIG   0.1516   0.1500 
44    N1       2.5470   -7.2818    4.3492 N.4     1  LIG  -0.7675  -0.9060 
45    H23      1.9168   -7.1121    5.1458 H       1  LIG   0.4447   0.4500 
46    H24      2.7113   -8.2988    4.3476 H       1  LIG   0.4454   0.4500 
@<TRIPOS>BOND
1     1     2     1
2     1     25    1
3     1     26    1
4     1     27    1
5     2     3     1
6     2     28    1
7     2     44    1
8     3     4     1
9     3     29    1
10    3     30    1
11    4     5     1
12    4     31    1
13    4     32    1
14    5     10    ar
15    5     6     ar
16    6     7     ar
17    6     33    1
18    7     8     ar
19    7     34    1
20    8     9     ar
21    8     11    1
22    9     10    ar
23    9     35    1
24    10    36    1
25    11    22    1
26    12    13    1
27    12    37    1
28    12    38    1
29    12    44    1
30    13    14    1
31    13    39    1
32    13    40    1
33    14    19    ar
34    14    15    ar
35    15    16    ar
36    15    41    1
37    16    17    ar
38    16    42    1
39    17    18    ar
40    17    21    1
41    18    19    ar
42    18    20    1
43    19    43    1
44    20    23    1
45    21    24    1
46    44    45    1
47    44    46    1
@<TRIPOS>SUBSTRUCTURE
1   LIG    1    
 
########## Number      : 626
########## Name        : ZINC00003975
########## Description : AM1BCC_CHARGES =  -0.0000 ORIGINAL_CHARGES =   0.0000

@<TRIPOS>MOLECULE
ZINC00003975
38    38    1     0     0    
SMALL
USER_CHARGES
****
****
@<TRIPOS>ATOM
1     C1       8.7352   -8.5197    2.2734 C.3     1  LIG   0.0891   0.3001 
2     N1       7.5701   -7.6690    2.3087 N.am    1  LIG  -0.5517  -0.7301 
3     C2       7.3296   -6.6683    1.3967 C.2     1  LIG   0.7380   0.7800 
4     O1       8.0460   -6.3802    0.4451 O.2     1  LIG  -0.6090  -0.5700 
5     O2       6.1699   -6.0298    1.7205 O.3     1  LIG  -0.4399  -0.4300 
6     C3       5.8090   -4.9010    0.9041 C.3     1  LIG   0.1330   0.4610 
7     C4       4.9060   -3.9772    1.6411 C.2     1  LIG   0.3253   0.0462 
8     C5       5.0711   -3.3993    2.8930 C.2     1  LIG  -0.1956  -0.3316 
9     N2       3.9179   -2.6623    3.0863 N.pl3   1  LIG  -0.1759   0.0476 
10    C6       3.1673   -2.7690    1.9410 C.2     1  LIG   0.4809   0.2425 
11    N3       3.7300   -3.5658    1.0627 N.2     1  LIG  -0.6689  -0.5653 
12    S1       1.6662   -1.9246    1.7147 S.3     1  LIG  -0.2403  -0.2860 
13    C7       1.1982   -2.4712    0.0581 C.3     1  LIG  -0.0459   0.2300 
14    C8       3.5817   -1.9207    4.2817 C.3     1  LIG   0.0175   0.2556 
15    C9       6.1678   -3.5143    3.8977 C.3     1  LIG   0.2307   0.4600 
16    O3       7.4022   -3.6537    3.1770 O.3     1  LIG  -0.4385  -0.4300 
17    C10      8.4633   -4.1276    3.8893 C.2     1  LIG   0.7277   0.7800 
18    O4       8.4432   -4.3804    5.0882 O.2     1  LIG  -0.5912  -0.5700 
19    N4       9.5419   -4.2854    3.0511 N.am    1  LIG  -0.5222  -0.7301 
20    C11     10.8193   -4.8006    3.4807 C.3     1  LIG   0.0770   0.3001 
21    H1       6.9008   -7.7929    3.0610 H       1  LIG   0.3314   0.3700 
22    H2       9.4147   -4.0596    2.0700 H       1  LIG   0.3333   0.3700 
23    H3       9.3697   -8.2633    3.1254 H       1  LIG   0.0223   0.0000 
24    H4       8.4052   -9.5570    2.3667 H       1  LIG   0.0453   0.0000 
25    H5       9.2948   -8.3885    1.3442 H       1  LIG   0.0714   0.0000 
26    H6       6.6995   -4.3451    0.5876 H       1  LIG   0.0821   0.0000 
27    H7       5.3044   -5.2845    0.0104 H       1  LIG   0.0730   0.0000 
28    H8       0.2480   -2.0067   -0.2189 H       1  LIG   0.0770   0.0000 
29    H9       1.9545   -2.1743   -0.6738 H       1  LIG   0.0795   0.0000 
30    H10      1.0727   -3.5573    0.0317 H       1  LIG   0.0789   0.0000 
31    H11      4.0714   -2.3729    5.1471 H       1  LIG   0.0577   0.0000 
32    H12      3.9178   -0.8896    4.1483 H       1  LIG   0.0565   0.0000 
33    H13      2.5032   -1.9576    4.4503 H       1  LIG   0.0720   0.0000 
34    H14      6.2453   -2.6150    4.5163 H       1  LIG   0.0582   0.0000 
35    H15      5.9879   -4.3901    4.5316 H       1  LIG   0.0767   0.0000 
36    H16     10.9351   -5.8076    3.0723 H       1  LIG   0.0215   0.0000 
37    H17     11.6028   -4.1540    3.0785 H       1  LIG   0.0514   0.0000 
38    H18     10.8865   -4.8347    4.5707 H       1  LIG   0.0717   0.0000 
@<TRIPOS>BOND
1     1     2     1
2     1     23    1
3     1     24    1
4     1     25    1
5     2     3     am
6     2     21    1
7     3     4     2
8     3     5     1
9     5     6     1
10    6     7     1
11    6     26    1
12    6     27    1
13    7     11    1
14    7     8     2
15    8     9     1
16    8     15    1
17    9     10    1
18    9     14    1
19    10    11    2
20    10    12    1
21    12    13    1
22    13    28    1
23    13    29    1
24    13    30    1
25    14    31    1
26    14    32    1
27    14    33    1
28    15    16    1
29    15    34    1
30    15    35    1
31    16    17    1
32    17    18    2
33    17    19    am
34    19    20    1
35    19    22    1
36    20    36    1
37    20    37    1
38    20    38    1
@<TRIPOS>SUBSTRUCTURE
1   LIG    1    
 
########## Number      : 627
########## Name        : ZINC00003982
########## Description : AM1BCC_CHARGES =  -0.0000 ORIGINAL_CHARGES =   0.0000

@<TRIPOS>MOLECULE
ZINC00003982
26    28    1     0     0    
SMALL
USER_CHARGES
****
****
@<TRIPOS>ATOM
1     C1      -7.6945    6.5645   -0.4212 C.3     1  LIG  -0.1044   0.0000 
2     C2      -6.4880    6.2076    0.4580 C.3     1  LIG   0.2826   0.6692 
3     C3      -5.5815    5.1932   -0.2141 C.3     1  LIG  -0.0863   0.0000 
4     C4      -4.6130    6.1221   -0.9903 C.3     1  LIG  -0.1705   0.0610 
5     C5      -4.5229    7.3768   -0.1228 C.2     1  LIG   0.6799   0.5690 
6     O1      -3.6162    8.1921   -0.1513 O.2     1  LIG  -0.5720  -0.5700 
7     N1      -5.6323    7.3276    0.7021 N.am    1  LIG  -0.3112  -0.4771 
8     C6      -5.7885    7.7628    2.0099 C.ar    1  LIG  -0.0271   0.1170 
9     C7      -5.1827    8.7989    2.6869 C.ar    1  LIG  -0.0950  -0.1500 
10    C8      -5.5025    8.9411    4.0384 C.ar    1  LIG  -0.1366  -0.1500 
11    C9      -6.3794    8.0394    4.6742 C.ar    1  LIG  -0.1224  -0.1500 
12    C10     -6.9516    6.9712    3.9733 C.ar    1  LIG  -0.1306  -0.1500 
13    C11     -6.6577    6.8483    2.6306 C.ar    1  LIG   0.0508   0.1000 
14    N2      -6.9993    5.7845    1.7667 N.pl3   1  LIG  -0.6772  -0.8691 
15    H1      -7.8156    5.2078    1.9083 H       1  LIG   0.3863   0.4000 
16    H2      -8.3328    5.6892   -0.5872 H       1  LIG   0.0441   0.0000 
17    H3      -8.3136    7.3401    0.0454 H       1  LIG   0.0542   0.0000 
18    H4      -7.3827    6.9480   -1.3988 H       1  LIG   0.0587   0.0000 
19    H5      -5.0121    4.6165    0.5259 H       1  LIG   0.0778   0.0000 
20    H6      -6.0993    4.4873   -0.8701 H       1  LIG   0.0595   0.0000 
21    H7      -3.6292    5.6599   -1.1047 H       1  LIG   0.0868   0.0000 
22    H8      -5.0145    6.3959   -1.9708 H       1  LIG   0.0810   0.0000 
23    H9      -4.4939    9.4794    2.2009 H       1  LIG   0.1600   0.1500 
24    H10     -5.0602    9.7506    4.6137 H       1  LIG   0.1366   0.1500 
25    H11     -6.5978    8.1650    5.7319 H       1  LIG   0.1339   0.1500 
26    H12     -7.5919    6.2580    4.4803 H       1  LIG   0.1411   0.1500 
@<TRIPOS>BOND
1     1     2     1
2     1     16    1
3     1     17    1
4     1     18    1
5     2     7     1
6     2     14    1
7     2     3     1
8     3     4     1
9     3     19    1
10    3     20    1
11    4     5     1
12    4     21    1
13    4     22    1
14    5     6     2
15    5     7     am
16    7     8     1
17    8     13    ar
18    8     9     ar
19    9     10    ar
20    9     23    1
21    10    11    ar
22    10    24    1
23    11    12    ar
24    11    25    1
25    12    13    ar
26    12    26    1
27    13    14    1
28    14    15    1
@<TRIPOS>SUBSTRUCTURE
1   LIG    1    
 
########## Number      : 628
########## Name        : ZINC00004031
########## Description : AM1BCC_CHARGES =   1.9998 ORIGINAL_CHARGES =   2.0000

@<TRIPOS>MOLECULE
ZINC00004031
27    27    1     0     0    
SMALL
USER_CHARGES
****
****
@<TRIPOS>ATOM
1     C1       7.0517   -9.6526    0.4203 C.3     1  LIG  -0.1044   0.0000 
2     C2       6.1431   -8.7062    1.1943 C.3     1  LIG  -0.1103   0.0000 
3     C3       5.1233   -8.0366    0.2852 C.3     1  LIG   0.1202   0.5030 
4     C4       5.2141   -9.9946   -1.2732 C.3     1  LIG   0.1127   0.5030 
5     C5       6.2367  -10.6689   -0.3693 C.3     1  LIG  -0.1076   0.0000 
6     C6       3.2032   -8.4547   -1.2586 C.3     1  LIG   0.0793   0.5030 
7     C7       2.1528   -9.4839   -1.6580 C.3     1  LIG   0.0774   0.5030 
8     H1       0.2909   -9.4713   -2.6041 H       1  LIG   0.4989   0.4500 
9     H2       0.5600   -8.1119   -1.7006 H       1  LIG   0.4793   0.4500 
10    H3       7.7239  -10.1719    1.1124 H       1  LIG   0.1167   0.0000 
11    H4       7.6823   -9.0752   -0.2669 H       1  LIG   0.0789   0.0000 
12    H5       5.6228   -9.2633    1.9834 H       1  LIG   0.0820   0.0000 
13    H6       6.7487   -7.9407    1.6922 H       1  LIG   0.1270   0.0000 
14    H7       4.4221   -7.4395    0.8774 H       1  LIG   0.1055   0.0000 
15    H8       5.5999   -7.4024   -0.4705 H       1  LIG   0.1122   0.0000 
16    H9       4.5860  -10.7505   -1.7514 H       1  LIG   0.0861   0.0000 
17    H10      5.6912   -9.3741   -2.0397 H       1  LIG   0.1124   0.0000 
18    H11      6.9087  -11.2877   -0.9745 H       1  LIG   0.1239   0.0000 
19    H12      5.7230  -11.3442    0.3264 H       1  LIG   0.0805   0.0000 
20    H13      2.7473   -7.6872   -0.6227 H       1  LIG   0.1212   0.0000 
21    H14      3.6615   -7.9698   -2.1277 H       1  LIG   0.1285   0.0000 
22    H15      2.5304  -10.2123   -2.3796 H       1  LIG   0.1373   0.0000 
23    H16      1.7399  -10.0063   -0.7900 H       1  LIG   0.1346   0.0000 
24    N1       4.3171   -9.0948   -0.4465 N.4     1  LIG  -0.6920  -0.9590 
25    H17      3.8747   -9.6776    0.2783 H       1  LIG   0.4543   0.4500 
26    N2       1.0146   -8.7956   -2.3216 N.4     1  LIG  -0.8347  -0.8530 
27    H18      1.3080   -8.2969   -3.1730 H       1  LIG   0.4799   0.4500 
@<TRIPOS>BOND
1     1     5     1
2     1     2     1
3     1     10    1
4     1     11    1
5     2     3     1
6     2     12    1
7     2     13    1
8     3     14    1
9     3     15    1
10    3     24    1
11    4     5     1
12    4     16    1
13    4     17    1
14    4     24    1
15    5     18    1
16    5     19    1
17    6     7     1
18    6     20    1
19    6     21    1
20    6     24    1
21    7     22    1
22    7     23    1
23    7     26    1
24    8     26    1
25    9     26    1
26    24    25    1
27    26    27    1
@<TRIPOS>SUBSTRUCTURE
1   LIG    1    
 
########## Number      : 629
########## Name        : ZINC00004042
########## Description : AM1BCC_CHARGES =   0.0001 ORIGINAL_CHARGES =   0.0000

@<TRIPOS>MOLECULE
ZINC00004042
22    22    1     0     0    
SMALL
USER_CHARGES
****
****
@<TRIPOS>ATOM
1     C1       6.4675   -7.3328   -1.7535 C.3     1  LIG  -0.1444   0.1435 
2     C2       5.2988   -8.2344   -1.5031 C.ar    1  LIG   0.2974   0.1665 
3     C3       4.0782   -8.0652   -2.1432 C.ar    1  LIG   0.2974   0.1665 
4     N1       3.0396   -8.8964   -1.8964 N.ar    1  LIG  -0.6347  -0.6200 
5     C4       3.2279   -9.8978   -1.0062 C.ar    1  LIG   0.2974   0.1665 
6     C5       4.4485  -10.0670   -0.3661 C.ar    1  LIG   0.2974   0.1665 
7     N2       5.4871   -9.2358   -0.6130 N.ar    1  LIG  -0.6347  -0.6200 
8     C6       4.6898  -11.1642    0.6236 C.3     1  LIG  -0.1444   0.1435 
9     C7       2.0592  -10.7995   -0.7559 C.3     1  LIG  -0.1444   0.1435 
10    C8       3.8368   -6.9681   -3.1329 C.3     1  LIG  -0.1444   0.1435 
11    H1       6.2195   -6.3013   -1.4850 H       1  LIG   0.0500   0.0000 
12    H2       7.3297   -7.6375   -1.1510 H       1  LIG   0.0649   0.0000 
13    H3       6.7636   -7.3734   -2.8061 H       1  LIG   0.0495   0.0000 
14    H4       4.0070  -11.0699    1.4735 H       1  LIG   0.0502   0.0000 
15    H5       4.5512  -12.1420    0.1523 H       1  LIG   0.0492   0.0000 
16    H6       5.7136  -11.1209    1.0101 H       1  LIG   0.0649   0.0000 
17    H7       1.1970  -10.4947   -1.3583 H       1  LIG   0.0649   0.0000 
18    H8       2.3072  -11.8309   -1.0244 H       1  LIG   0.0500   0.0000 
19    H9       1.7630  -10.7588    0.2968 H       1  LIG   0.0495   0.0000 
20    H10      4.5196   -7.0623   -3.9828 H       1  LIG   0.0502   0.0000 
21    H11      2.8131   -7.0113   -3.5194 H       1  LIG   0.0649   0.0000 
22    H12      3.9755   -5.9902   -2.6617 H       1  LIG   0.0493   0.0000 
@<TRIPOS>BOND
1     1     2     1
2     1     11    1
3     1     12    1
4     1     13    1
5     2     7     ar
6     2     3     ar
7     3     4     ar
8     3     10    1
9     4     5     ar
10    5     6     ar
11    5     9     1
12    6     7     ar
13    6     8     1
14    8     14    1
15    8     15    1
16    8     16    1
17    9     17    1
18    9     18    1
19    9     19    1
20    10    20    1
21    10    21    1
22    10    22    1
@<TRIPOS>SUBSTRUCTURE
1   LIG    1    
 
########## Number      : 630
########## Name        : ZINC00004060
########## Description : AM1BCC_CHARGES =   0.0001 ORIGINAL_CHARGES =  -0.0000

@<TRIPOS>MOLECULE
ZINC00004060
28    29    1     0     0    
SMALL
USER_CHARGES
****
****
@<TRIPOS>ATOM
1     C1       3.5128   -6.2988   -1.6350 C.2     1  LIG   0.0360  -0.0410 
2     C2       4.6544   -6.9751   -1.6781 C.2     1  LIG  -0.1534   0.1639 
3     C3       5.7964   -6.4675   -0.8918 C.2     1  LIG   0.7510   0.4856 
4     N1       5.6846   -5.3813   -0.1760 N.2     1  LIG  -0.7170  -0.6610 
5     C4       4.4939   -4.6734   -0.1303 C.2     1  LIG   0.8407   0.8410 
6     O1       4.4205   -3.6517    0.5522 O.2     1  LIG  -0.6186  -0.5700 
7     N2       3.3924   -5.1533   -0.8739 N.am    1  LIG  -0.3855  -0.4691 
8     C5       2.0996   -4.4444   -0.8885 C.3     1  LIG   0.3073   0.5801 
9     C6       2.1654   -3.0724   -1.5716 C.3     1  LIG  -0.0954   0.0000 
10    C7       1.9053   -2.0872   -0.4538 C.3     1  LIG  -0.0980   0.0000 
11    C8       1.1190   -2.9291    0.5378 C.3     1  LIG   0.1024   0.2800 
12    O2       1.6414   -4.2508    0.4503 O.3     1  LIG  -0.4356  -0.5600 
13    C9       1.2526   -2.4216    1.9671 C.3     1  LIG   0.1126   0.2800 
14    O3       0.3840   -3.1618    2.8194 O.3     1  LIG  -0.5997  -0.6800 
15    N3       6.9863   -7.1510   -0.9199 N.pl3   1  LIG  -0.9142  -0.8500 
16    F1       4.8309   -8.0949   -2.3996 F       1  LIG  -0.1601  -0.1495 
17    H1       0.6128   -4.1015    2.7091 H       1  LIG   0.4081   0.4000 
18    H2       7.7822   -6.8191   -0.3869 H       1  LIG   0.4517   0.4000 
19    H3       7.1062   -7.9976   -1.4652 H       1  LIG   0.4447   0.4000 
20    H4       2.6477   -6.6302   -2.1972 H       1  LIG   0.1717   0.1500 
21    H5       1.3767   -5.0540   -1.4540 H       1  LIG   0.0712   0.0000 
22    H6       3.1049   -2.8805   -2.0991 H       1  LIG   0.0873   0.0000 
23    H7       1.3595   -2.9996   -2.3125 H       1  LIG   0.0536   0.0000 
24    H8       2.8552   -1.7509   -0.0251 H       1  LIG   0.0820   0.0000 
25    H9       1.3577   -1.1992   -0.7831 H       1  LIG   0.0543   0.0000 
26    H10      0.0546   -2.9151    0.2502 H       1  LIG   0.0710   0.0000 
27    H11      2.2727   -2.5449    2.3453 H       1  LIG   0.0637   0.0000 
28    H12      0.9739   -1.3661    2.0388 H       1  LIG   0.0683   0.0000 
@<TRIPOS>BOND
1     1     7     1
2     1     2     2
3     1     20    1
4     2     3     1
5     2     16    1
6     3     4     2
7     3     15    1
8     4     5     1
9     5     6     2
10    5     7     am
11    7     8     1
12    8     12    1
13    8     9     1
14    8     21    1
15    9     10    1
16    9     22    1
17    9     23    1
18    10    11    1
19    10    24    1
20    10    25    1
21    11    12    1
22    11    13    1
23    11    26    1
24    13    14    1
25    13    27    1
26    13    28    1
27    14    17    1
28    15    18    1
29    15    19    1
@<TRIPOS>SUBSTRUCTURE
1   LIG    1    
 
########## Number      : 631
########## Name        : ZINC00004087
########## Description : AM1BCC_CHARGES =   2.0000 ORIGINAL_CHARGES =   2.0000

@<TRIPOS>MOLECULE
ZINC00004087
24    24    1     0     0    
SMALL
USER_CHARGES
****
****
@<TRIPOS>ATOM
1     C1       5.2425   -7.2037   -1.0087 C.3     1  LIG  -0.0790   0.0000 
2     C2       6.0381   -8.4631   -0.5908 C.3     1  LIG  -0.0775   0.0000 
3     C3       4.7925   -8.9311    0.2062 C.3     1  LIG  -0.1257   0.0000 
4     C4       4.2542   -7.4980    0.1499 C.3     1  LIG  -0.1264   0.0000 
5     C5       4.5761   -6.7270    1.4386 C.3     1  LIG   0.1037   0.5030 
6     C6       3.8937   -9.8990   -0.5775 C.3     1  LIG   0.1045   0.5030 
7     H1       3.8811   -6.5574    3.3963 H       1  LIG   0.4850   0.4500 
8     H2       2.6843   -6.9321    2.3174 H       1  LIG   0.4688   0.4500 
9     H3       2.0915  -10.9208   -0.3491 H       1  LIG   0.4852   0.4500 
10    H4       2.8843  -10.6839    1.0833 H       1  LIG   0.4681   0.4500 
11    H5       4.7870   -7.2879   -2.0021 H       1  LIG   0.1016   0.0000 
12    H6       5.7909   -6.2592   -0.9552 H       1  LIG   0.0938   0.0000 
13    H7       6.3650   -9.1089   -1.4104 H       1  LIG   0.0946   0.0000 
14    H8       6.9030   -8.2392    0.0443 H       1  LIG   0.1024   0.0000 
15    H9       5.0596   -9.4350    1.1456 H       1  LIG   0.0817   0.0000 
16    H10      3.2145   -7.2577   -0.1133 H       1  LIG   0.0814   0.0000 
17    H11      5.5973   -6.9011    1.7926 H       1  LIG   0.1236   0.0000 
18    H12      4.4359   -5.6517    1.2880 H       1  LIG   0.1364   0.0000 
19    H13      3.5650   -9.4885   -1.5377 H       1  LIG   0.1240   0.0000 
20    H14      4.4148  -10.8443   -0.7604 H       1  LIG   0.1389   0.0000 
21    N1       3.6704   -7.1069    2.5518 N.4     1  LIG  -0.8413  -0.8530 
22    H15      3.7672   -8.0982    2.8061 H       1  LIG   0.4491   0.4500 
23    N2       2.6644  -10.2476    0.1782 N.4     1  LIG  -0.8408  -0.8530 
24    H16      2.0747   -9.4246    0.3555 H       1  LIG   0.4479   0.4500 
@<TRIPOS>BOND
1     1     4     1
2     1     2     1
3     1     11    1
4     1     12    1
5     2     3     1
6     2     13    1
7     2     14    1
8     3     4     1
9     3     6     1
10    3     15    1
11    4     5     1
12    4     16    1
13    5     17    1
14    5     18    1
15    5     21    1
16    6     19    1
17    6     20    1
18    6     23    1
19    7     21    1
20    8     21    1
21    9     23    1
22    10    23    1
23    21    22    1
24    23    24    1
@<TRIPOS>SUBSTRUCTURE
1   LIG    1    
 
########## Number      : 632
########## Name        : ZINC00004088
########## Description : AM1BCC_CHARGES =  -0.0001 ORIGINAL_CHARGES =   0.0000

@<TRIPOS>MOLECULE
ZINC00004088
43    45    1     0     0    
SMALL
USER_CHARGES
****
****
@<TRIPOS>ATOM
1     C1       0.0018   14.8802   11.9651 C.3     1  LIG  -0.1032   0.0000 
2     C2       0.6338   13.5240   11.7234 C.3     1  LIG   0.1525   0.2800 
3     O1       0.1535   13.0220   10.4664 O.3     1  LIG  -0.4492  -0.4300 
4     C3       0.6293   11.7960   10.0917 C.2     1  LIG   0.7546   0.7800 
5     O2       1.4164   11.1399   10.7617 O.2     1  LIG  -0.5786  -0.5700 
6     N1       0.0765   11.4643    8.8761 N.am    1  LIG  -0.5287  -0.5470 
7     C4       0.2720   10.3024    8.1032 C.ar    1  LIG   0.5841   0.4270 
8     C5       1.1064    9.2638    8.4913 C.ar    1  LIG  -0.3360  -0.1500 
9     C6       1.2320    8.1660    7.6434 C.ar    1  LIG   0.1974   0.1000 
10    C7       0.5179    8.1296    6.4253 C.ar    1  LIG  -0.1147   0.1000 
11    C8      -0.3220    9.1978    6.1184 C.ar    1  LIG   0.6470   0.4100 
12    N2      -0.4246   10.2741    6.9373 N.ar    1  LIG  -0.7834  -0.6200 
13    N3      -1.0371    9.2182    4.9235 N.pl3   1  LIG  -0.9097  -0.9000 
14    N4       0.6817    7.0069    5.5909 N.pl3   1  LIG  -0.5534  -0.6000 
15    C9       1.5183    5.9599    5.9474 C.2     1  LIG   0.0450   0.0716 
16    C10      2.2061    5.9840    7.1192 C.2     1  LIG   0.0444  -0.0382 
17    N5       2.0688    7.0779    7.9675 N.pl3   1  LIG  -0.6069  -0.6000 
18    C11      3.1358    4.9050    7.6032 C.3     1  LIG  -0.0532   0.1382 
19    C12      1.6060    4.8520    4.9859 C.ar    1  LIG  -0.0478   0.0284 
20    C13      2.5816    4.8654    3.9803 C.ar    1  LIG  -0.1172  -0.1500 
21    C14      2.6623    3.8123    3.0680 C.ar    1  LIG  -0.1344  -0.1500 
22    C15      1.7711    2.7434    3.1538 C.ar    1  LIG  -0.1232  -0.1500 
23    C16      0.7970    2.7250    4.1514 C.ar    1  LIG  -0.1363  -0.1500 
24    C17      0.7124    3.7759    5.0659 C.ar    1  LIG  -0.1022  -0.1500 
25    H1      -0.5615   12.1397    8.4675 H       1  LIG   0.3531   0.3700 
26    H2      -1.3787    8.3426    4.5503 H       1  LIG   0.3978   0.4000 
27    H3      -1.6038   10.0409    4.7577 H       1  LIG   0.3979   0.4000 
28    H4       2.5843    7.0869    8.8376 H       1  LIG   0.4233   0.4000 
29    H5       0.3391   15.3043   12.9150 H       1  LIG   0.0500   0.0000 
30    H6       0.2572   15.5740   11.1574 H       1  LIG   0.0508   0.0000 
31    H7      -1.0901   14.7992   11.9817 H       1  LIG   0.0496   0.0000 
32    H8       1.7243   13.6216   11.6856 H       1  LIG   0.0561   0.0000 
33    H9       0.3522   12.8326   12.5250 H       1  LIG   0.0548   0.0000 
34    H10      1.6637    9.2755    9.4190 H       1  LIG   0.1860   0.1500 
35    H11      0.2183    6.9776    4.6934 H       1  LIG   0.3912   0.4000 
36    H12      3.2169    4.0575    6.9178 H       1  LIG   0.0639   0.0000 
37    H13      4.1433    5.3121    7.7418 H       1  LIG   0.0553   0.0000 
38    H14      2.7885    4.5146    8.5660 H       1  LIG   0.0431   0.0000 
39    H15      3.2832    5.6925    3.9008 H       1  LIG   0.1384   0.1500 
40    H16      3.4205    3.8256    2.2901 H       1  LIG   0.1337   0.1500 
41    H17      1.8355    1.9245    2.4430 H       1  LIG   0.1323   0.1500 
42    H18      0.1031    1.8918    4.2170 H       1  LIG   0.1333   0.1500 
43    H19     -0.0524    3.7479    5.8385 H       1  LIG   0.1424   0.1500 
@<TRIPOS>BOND
1     1     2     1
2     1     29    1
3     1     30    1
4     1     31    1
5     2     3     1
6     2     32    1
7     2     33    1
8     3     4     1
9     4     5     2
10    4     6     am
11    6     7     1
12    6     25    1
13    7     12    ar
14    7     8     ar
15    8     9     ar
16    8     34    1
17    9     17    1
18    9     10    ar
19    10    11    ar
20    10    14    1
21    11    12    ar
22    11    13    1
23    13    26    1
24    13    27    1
25    14    15    1
26    14    35    1
27    15    19    1
28    15    16    2
29    16    17    1
30    16    18    1
31    17    28    1
32    18    36    1
33    18    37    1
34    18    38    1
35    19    24    ar
36    19    20    ar
37    20    21    ar
38    20    39    1
39    21    22    ar
40    21    40    1
41    22    23    ar
42    22    41    1
43    23    24    ar
44    23    42    1
45    24    43    1
@<TRIPOS>SUBSTRUCTURE
1   LIG    1    
 
########## Number      : 633
########## Name        : ZINC00004161
########## Description : AM1BCC_CHARGES =   0.0001 ORIGINAL_CHARGES =  -0.0000

@<TRIPOS>MOLECULE
ZINC00004161
20    20    1     0     0    
SMALL
USER_CHARGES
****
****
@<TRIPOS>ATOM
1     C1      -1.7233    2.8460    2.2603 C.3     1  LIG  -0.0847   0.0000 
2     C2      -0.6966    2.5967    3.3710 C.3     1  LIG  -0.0729   0.0000 
3     C3       0.6417    2.3772    2.6496 C.3     1  LIG  -0.1608  -0.1060 
4     C4       0.4990    3.1256    1.3354 C.3     1  LIG   0.1632   0.5030 
5     C5      -0.9460    2.8184    0.9433 C.3     1  LIG  -0.1188   0.0000 
6     C6       1.8429    2.8592    3.4882 C.2     1  LIG   0.8913   0.9060 
7     O1       1.7491    2.6573    4.7313 O.co2   1  LIG  -0.5863  -0.9000 
8     H1       0.4713    5.1093    0.6679 H       1  LIG   0.3640   0.4500 
9     H2       0.0199    4.9641    2.2597 H       1  LIG   0.3614   0.4500 
10    H3      -2.1984    3.8229    2.4054 H       1  LIG   0.0453   0.0000 
11    H4      -2.5177    2.0926    2.2659 H       1  LIG   0.0515   0.0000 
12    H5      -0.6689    3.4548    4.0531 H       1  LIG   0.0597   0.0000 
13    H6      -0.9705    1.7189    3.9669 H       1  LIG   0.0645   0.0000 
14    H7       0.7460    1.2881    2.4975 H       1  LIG   0.0879   0.0000 
15    H8       1.1936    2.8107    0.5434 H       1  LIG   0.0648   0.0000 
16    H9      -1.0028    1.8117    0.5109 H       1  LIG   0.0529   0.0000 
17    H10     -1.3570    3.5191    0.2094 H       1  LIG   0.0493   0.0000 
18    N1       0.6475    4.5893    1.5368 N.4     1  LIG  -1.1326  -0.8530 
19    H11      1.6132    4.8058    1.8284 H       1  LIG   0.4549   0.4500 
20    O2       2.7923    3.3777    2.8344 O.co2   1  LIG  -0.5545  -0.9000 
@<TRIPOS>BOND
1     1     5     1
2     1     2     1
3     1     10    1
4     1     11    1
5     2     3     1
6     2     12    1
7     2     13    1
8     3     4     1
9     3     6     1
10    3     14    1
11    4     5     1
12    4     15    1
13    4     18    1
14    5     16    1
15    5     17    1
16    6     7     2
17    6     20    1
18    8     18    1
19    9     18    1
20    18    19    1
@<TRIPOS>SUBSTRUCTURE
1   LIG    1    
 
########## Number      : 634
########## Name        : ZINC00004164
########## Description : AM1BCC_CHARGES =   0.0000 ORIGINAL_CHARGES =  -0.0000

@<TRIPOS>MOLECULE
ZINC00004164
35    37    1     0     0    
SMALL
USER_CHARGES
****
****
@<TRIPOS>ATOM
1     C1       6.8167   -8.8195    1.1299 C.ar    1  LIG  -0.1574  -0.1500 
2     C2       6.2142   -9.5780    0.1291 C.ar    1  LIG  -0.1111  -0.1500 
3     C3       5.0430   -9.1431   -0.4973 C.ar    1  LIG  -0.1487  -0.1500 
4     C4       4.5005   -7.9214   -0.0823 C.ar    1  LIG  -0.0461  -0.1516 
5     C5       5.0794   -7.1383    0.9181 C.ar    1  LIG  -0.0891   0.0000 
6     C6       6.2620   -7.5999    1.5342 C.ar    1  LIG  -0.0799  -0.1500 
7     C7       4.2626   -5.9715    1.0762 C.2     1  LIG  -0.1399  -0.1810 
8     C8       3.2240   -6.0859    0.1734 C.2     1  LIG  -0.1067  -0.3016 
9     N1       3.3763   -7.2584   -0.5151 N.pl3   1  LIG  -0.1936   0.0332 
10    C9       4.4851   -4.8442    2.0306 C.3     1  LIG  -0.0338   0.1810 
11    C10      5.4752   -3.8156    1.4875 C.3     1  LIG   0.0881   0.3001 
12    N2       5.6845   -2.7295    2.4287 N.am    1  LIG  -0.5581  -0.7301 
13    C11      6.5845   -2.8255    3.4774 C.2     1  LIG   0.6691   0.5438 
14    O1       7.2955   -3.8024    3.6971 O.2     1  LIG  -0.6014  -0.5700 
15    C12      6.6829   -1.6428    4.3658 C.ar    1  LIG  -0.2606   0.0862 
16    C13      5.6341   -0.7429    4.5595 C.ar    1  LIG  -0.0669  -0.1500 
17    C14      5.8057    0.3363    5.4226 C.ar    1  LIG  -0.2574  -0.1500 
18    C15      7.0238    0.4717    6.0680 C.ar    1  LIG   0.4153   0.1600 
19    N3       8.0579   -0.3835    5.9152 N.ar    1  LIG  -0.6671  -0.6200 
20    C16      7.8618   -1.4231    5.0710 C.ar    1  LIG   0.4497   0.1600 
21    H1       2.7535   -7.5908   -1.2383 H       1  LIG   0.2981   0.2700 
22    H2       5.1654   -1.8733    2.2695 H       1  LIG   0.3021   0.3700 
23    H3       7.7276   -9.1767    1.6031 H       1  LIG   0.1315   0.1500 
24    H4       6.6610  -10.5228   -0.1706 H       1  LIG   0.1285   0.1500 
25    H5       4.5751   -9.7348   -1.2770 H       1  LIG   0.1305   0.1500 
26    H6       6.7439   -7.0185    2.3154 H       1  LIG   0.1469   0.1500 
27    H7       2.3888   -5.4323   -0.0378 H       1  LIG   0.1622   0.1500 
28    H8       3.5287   -4.3519    2.2500 H       1  LIG   0.0358   0.0000 
29    H9       4.8424   -5.2432    2.9883 H       1  LIG   0.0670   0.0000 
30    H10      6.4430   -4.2824    1.2702 H       1  LIG   0.0847   0.0000 
31    H11      5.1024   -3.3709    0.5580 H       1  LIG   0.0494   0.0000 
32    H12      4.6728   -0.8683    4.0710 H       1  LIG   0.1349   0.1500 
33    H13      5.0050    1.0481    5.5902 H       1  LIG   0.1472   0.1500 
34    H14      7.2033    1.2964    6.7502 H       1  LIG   0.0264   0.1500 
35    H15      8.7161   -2.0870    4.9759 H       1  LIG   0.0504   0.1500 
@<TRIPOS>BOND
1     1     6     ar
2     1     2     ar
3     1     23    1
4     2     3     ar
5     2     24    1
6     3     4     ar
7     3     25    1
8     4     9     1
9     4     5     ar
10    5     6     ar
11    5     7     1
12    6     26    1
13    7     8     2
14    7     10    1
15    8     9     1
16    8     27    1
17    9     21    1
18    10    11    1
19    10    28    1
20    10    29    1
21    11    12    1
22    11    30    1
23    11    31    1
24    12    13    am
25    12    22    1
26    13    14    2
27    13    15    1
28    15    20    ar
29    15    16    ar
30    16    17    ar
31    16    32    1
32    17    18    ar
33    17    33    1
34    18    19    ar
35    18    34    1
36    19    20    ar
37    20    35    1
@<TRIPOS>SUBSTRUCTURE
1   LIG    1    
 
########## Number      : 635
########## Name        : ZINC00004184
########## Description : AM1BCC_CHARGES =   0.9999 ORIGINAL_CHARGES =   1.0000

@<TRIPOS>MOLECULE
ZINC00004184
39    41    1     0     0    
SMALL
USER_CHARGES
****
****
@<TRIPOS>ATOM
1     C1       5.8883   -7.6924    2.0421 C.2     1  LIG  -0.1544  -0.1500 
2     C2       4.7372   -6.8883    1.8048 C.2     1  LIG  -0.1097  -0.1500 
3     C3       4.7094   -6.3228    0.5369 C.2     1  LIG  -0.2404  -0.1400 
4     S1       6.1113   -6.8073   -0.3472 S.3     1  LIG   0.0901  -0.0800 
5     C4       6.7193   -7.7319    0.9495 C.2     1  LIG  -0.1308  -0.1100 
6     C5       3.6284   -5.4030   -0.0696 C.3     1  LIG   0.2608   0.6830 
7     C6       2.2135   -5.9040    0.3895 C.3     1  LIG  -0.0951   0.0000 
8     C7       1.0333   -5.1579   -0.2354 C.3     1  LIG  -0.0941   0.0000 
9     C8       1.0913   -5.1848   -1.7559 C.3     1  LIG  -0.0912   0.0000 
10    C9       2.4387   -4.7098   -2.2804 C.3     1  LIG  -0.0911   0.0000 
11    C10      3.5975   -5.4733   -1.6340 C.3     1  LIG  -0.1077   0.0000 
12    C11      3.7508   -3.6745    1.8714 C.3     1  LIG   0.1072   0.5030 
13    C12      3.6876   -2.1734    2.1697 C.3     1  LIG  -0.0836   0.1382 
14    C13      4.6791   -1.3725    1.3830 C.2     1  LIG  -0.1338  -0.2882 
15    C14      5.3117   -1.8724    0.3138 C.2     1  LIG  -0.2114  -0.2882 
16    C15      5.0469   -3.2522   -0.2073 C.3     1  LIG   0.1456   0.6412 
17    H1       6.0935   -8.2149    2.9676 H       1  LIG   0.1804   0.1500 
18    H2       3.9644   -6.7329    2.5469 H       1  LIG   0.1586   0.1500 
19    H3       7.6558   -8.2631    0.8521 H       1  LIG   0.1986   0.1500 
20    H4       2.1172   -6.9668    0.1209 H       1  LIG   0.0980   0.0000 
21    H5       2.0994   -5.8825    1.4776 H       1  LIG   0.0621   0.0000 
22    H6       0.0972   -5.6228    0.0961 H       1  LIG   0.0823   0.0000 
23    H7       1.0027   -4.1224    0.1204 H       1  LIG   0.0290   0.0000 
24    H8       0.9086   -6.2086   -2.1058 H       1  LIG   0.0670   0.0000 
25    H9       0.2902   -4.5622   -2.1698 H       1  LIG   0.0725   0.0000 
26    H10      2.4729   -4.8552   -3.3666 H       1  LIG   0.0823   0.0000 
27    H11      2.5461   -3.6329   -2.1106 H       1  LIG   0.0306   0.0000 
28    H12      4.5346   -5.1220   -2.0791 H       1  LIG   0.0623   0.0000 
29    H13      3.5110   -6.5264   -1.9402 H       1  LIG   0.0977   0.0000 
30    H14      2.8650   -4.1596    2.2828 H       1  LIG   0.0967   0.0000 
31    H15      4.6581   -4.1208    2.2908 H       1  LIG   0.1123   0.0000 
32    H16      2.6822   -1.7917    1.9554 H       1  LIG   0.0828   0.0000 
33    H17      3.8674   -2.0207    3.2399 H       1  LIG   0.1060   0.0000 
34    H18      4.8852   -0.3557    1.7046 H       1  LIG   0.1708   0.1500 
35    H19      6.0363   -1.2608   -0.2156 H       1  LIG   0.1756   0.1500 
36    H20      5.8968   -3.8944    0.0323 H       1  LIG   0.1120   0.0000 
37    H21      4.9171   -3.1852   -1.2900 H       1  LIG   0.1016   0.0000 
38    N1       3.7796   -3.8796    0.3552 N.4     1  LIG  -0.6832  -0.9590 
39    H22      2.9584   -3.3474    0.0215 H       1  LIG   0.4435   0.4500 
@<TRIPOS>BOND
1     1     5     2
2     1     2     1
3     1     17    1
4     2     3     2
5     2     18    1
6     3     4     1
7     3     6     1
8     4     5     1
9     5     19    1
10    6     11    1
11    6     7     1
12    6     38    1
13    7     8     1
14    7     20    1
15    7     21    1
16    8     9     1
17    8     22    1
18    8     23    1
19    9     10    1
20    9     24    1
21    9     25    1
22    10    11    1
23    10    26    1
24    10    27    1
25    11    28    1
26    11    29    1
27    12    13    1
28    12    30    1
29    12    31    1
30    12    38    1
31    13    14    1
32    13    32    1
33    13    33    1
34    14    15    2
35    14    34    1
36    15    16    1
37    15    35    1
38    16    36    1
39    16    37    1
40    16    38    1
41    38    39    1
@<TRIPOS>SUBSTRUCTURE
1   LIG    1    
 
########## Number      : 636
########## Name        : ZINC00004194
########## Description : AM1BCC_CHARGES =  -0.0002 ORIGINAL_CHARGES =  -0.0000

@<TRIPOS>MOLECULE
ZINC00004194
25    26    1     0     0    
SMALL
USER_CHARGES
****
****
@<TRIPOS>ATOM
1     C1       3.0214   -8.9755    0.1203 C.3     1  LIG  -0.1635   0.0610 
2     C2       3.7707   -8.2223   -0.9459 C.2     1  LIG   0.7061   0.5690 
3     O1       4.3880   -8.8176   -1.8300 O.2     1  LIG  -0.5459  -0.5700 
4     N1       3.7029   -6.8290   -0.8414 N.am    1  LIG  -0.4606  -0.1200 
5     C3       3.0672   -5.9276    0.0779 C.2     1  LIG   0.8256   0.6900 
6     O2       2.4320   -6.2714    1.0660 O.2     1  LIG  -0.5914  -0.5700 
7     N2       3.3682   -4.6254   -0.3740 N.am    1  LIG  -0.4053  -0.2370 
8     C4       4.1641   -4.7139   -1.5248 C.2     1  LIG   0.7528   0.6900 
9     O3       4.6127   -3.8264   -2.2381 O.2     1  LIG  -0.5601  -0.5700 
10    N3       4.3592   -6.0707   -1.7833 N.am    1  LIG  -0.2859  -0.4300 
11    C5       2.9323   -3.4109    0.2427 C.ar    1  LIG   0.0639   0.1170 
12    C6       1.9024   -3.4008    1.1987 C.ar    1  LIG  -0.1449  -0.1500 
13    C7       1.4755   -2.2112    1.8016 C.ar    1  LIG  -0.1133  -0.1500 
14    C8       2.0694   -1.0019    1.4638 C.ar    1  LIG  -0.1362  -0.1500 
15    C9       3.0898   -0.9839    0.5218 C.ar    1  LIG  -0.1126  -0.1500 
16    C10      3.5151   -2.1738   -0.0817 C.ar    1  LIG  -0.1426  -0.1500 
17    H1       4.8742   -6.4917   -2.5469 H       1  LIG   0.3094   0.3700 
18    H2       3.1194  -10.0508   -0.0552 H       1  LIG   0.0823   0.0000 
19    H3       3.4378   -8.7454    1.1045 H       1  LIG   0.0890   0.0000 
20    H4       1.9601   -8.7152    0.0890 H       1  LIG   0.0872   0.0000 
21    H5       1.3751   -4.3036    1.4877 H       1  LIG   0.1634   0.1500 
22    H6       0.6719   -2.2351    2.5327 H       1  LIG   0.1387   0.1500 
23    H7       1.7389   -0.0795    1.9314 H       1  LIG   0.1376   0.1500 
24    H8       3.5650   -0.0439    0.2547 H       1  LIG   0.1399   0.1500 
25    H9       4.3349   -2.0906   -0.7872 H       1  LIG   0.1662   0.1500 
@<TRIPOS>BOND
1     1     2     1
2     1     18    1
3     1     19    1
4     1     20    1
5     2     3     2
6     2     4     am
7     4     10    1
8     4     5     am
9     5     6     2
10    5     7     am
11    7     8     am
12    7     11    1
13    8     9     2
14    8     10    am
15    10    17    1
16    11    16    ar
17    11    12    ar
18    12    13    ar
19    12    21    1
20    13    14    ar
21    13    22    1
22    14    15    ar
23    14    23    1
24    15    16    ar
25    15    24    1
26    16    25    1
@<TRIPOS>SUBSTRUCTURE
1   LIG    1    
 
########## Number      : 637
########## Name        : ZINC00004227
########## Description : AM1BCC_CHARGES =   0.9998 ORIGINAL_CHARGES =   1.0000

@<TRIPOS>MOLECULE
ZINC00004227
47    49    1     0     0    
SMALL
USER_CHARGES
****
****
@<TRIPOS>ATOM
1     C1       3.5270   -9.4011    0.2609 C.3     1  LIG  -0.1294   0.0000 
2     C2       5.0264   -9.6205    0.2472 C.3     1  LIG   0.1109   0.5030 
3     C3       7.0885   -9.8793    1.6380 C.3     1  LIG   0.1108   0.5030 
4     C4       7.4705  -10.2012    3.0734 C.3     1  LIG  -0.1353   0.0000 
5     C5       5.6930   -7.8121    2.0398 C.3     1  LIG   0.0823   0.5030 
6     C6       5.8930   -6.8660    0.8488 C.3     1  LIG  -0.1249   0.0000 
7     C7       4.3971   -7.5102    2.8335 C.3     1  LIG   0.0292   0.3691 
8     N1       4.5019   -6.2398    3.5995 N.pl3   1  LIG  -0.1463  -0.5691 
9     C8       3.8522   -5.0953    3.0679 C.ar    1  LIG   0.0054   0.1000 
10    C9       2.6090   -5.1842    2.4068 C.ar    1  LIG  -0.1301  -0.1500 
11    C10      1.9634   -4.0572    1.8896 C.ar    1  LIG  -0.1055  -0.1500 
12    C11      2.5366   -2.8027    2.0320 C.ar    1  LIG  -0.1161  -0.1500 
13    C12      3.7470   -2.6761    2.7051 C.ar    1  LIG  -0.0863  -0.1500 
14    C13      4.3970   -3.8059    3.2321 C.ar    1  LIG  -0.0220   0.1015 
15    S1       5.9442   -3.5239    4.0685 S.3     1  LIG  -0.1473  -0.2030 
16    C14      6.1182   -5.0259    5.0103 C.ar    1  LIG  -0.0188   0.1015 
17    C15      5.4274   -6.2083    4.6780 C.ar    1  LIG  -0.0001   0.1000 
18    C16      5.6726   -7.3426    5.4808 C.ar    1  LIG  -0.1427  -0.1500 
19    C17      6.5750   -7.3109    6.5479 C.ar    1  LIG  -0.1120  -0.1500 
20    C18      7.2548   -6.1399    6.8473 C.ar    1  LIG  -0.1190  -0.1500 
21    C19      7.0276   -5.0010    6.0819 C.ar    1  LIG  -0.0871  -0.1500 
22    H1       3.0762   -9.8874   -0.6109 H       1  LIG   0.0949   0.0000 
23    H2       3.0637   -9.8263    1.1566 H       1  LIG   0.0618   0.0000 
24    H3       3.2688   -8.3420    0.1944 H       1  LIG   0.0697   0.0000 
25    H4       5.2042  -10.6889    0.0802 H       1  LIG   0.0931   0.0000 
26    H5       5.5298   -9.0625   -0.5473 H       1  LIG   0.1057   0.0000 
27    H6       7.0827  -10.8084    1.0588 H       1  LIG   0.0974   0.0000 
28    H7       7.7795   -9.1725    1.1683 H       1  LIG   0.1047   0.0000 
29    H8       8.4467  -10.6964    3.0949 H       1  LIG   0.0981   0.0000 
30    H9       7.5447   -9.3051    3.6946 H       1  LIG   0.0705   0.0000 
31    H10      6.7422  -10.8768    3.5340 H       1  LIG   0.0647   0.0000 
32    H11      6.5648   -7.6380    2.6896 H       1  LIG   0.1101   0.0000 
33    H12      5.0170   -6.8243    0.1957 H       1  LIG   0.0626   0.0000 
34    H13      6.0800   -5.8458    1.2002 H       1  LIG   0.1083   0.0000 
35    H14      6.7613   -7.1578    0.2492 H       1  LIG   0.0572   0.0000 
36    H15      3.5582   -7.4966    2.1399 H       1  LIG   0.0815   0.0000 
37    H16      4.1576   -8.3345    3.5138 H       1  LIG   0.0519   0.0000 
38    H17      2.0865   -6.1320    2.3095 H       1  LIG   0.1410   0.1500 
39    H18      1.0065   -4.1642    1.3863 H       1  LIG   0.1496   0.1500 
40    H19      2.0388   -1.9242    1.6326 H       1  LIG   0.1538   0.1500 
41    H20      4.1775   -1.6831    2.8181 H       1  LIG   0.1570   0.1500 
42    H21      5.1496   -8.2793    5.3131 H       1  LIG   0.1371   0.1500 
43    H22      6.7378   -8.2027    7.1466 H       1  LIG   0.1477   0.1500 
44    H23      7.9570   -6.1106    7.6752 H       1  LIG   0.1539   0.1500 
45    H24      7.5709   -4.0912    6.3296 H       1  LIG   0.1588   0.1500 
46    N2       5.6811   -9.2788    1.5806 N.4     1  LIG  -0.6861  -0.9590 
47    H25      5.1437   -9.8078    2.2801 H       1  LIG   0.4391   0.4500 
@<TRIPOS>BOND
1     1     2     1
2     1     22    1
3     1     23    1
4     1     24    1
5     2     25    1
6     2     26    1
7     2     46    1
8     3     4     1
9     3     27    1
10    3     28    1
11    3     46    1
12    4     29    1
13    4     30    1
14    4     31    1
15    5     6     1
16    5     7     1
17    5     32    1
18    5     46    1
19    6     33    1
20    6     34    1
21    6     35    1
22    7     8     1
23    7     36    1
24    7     37    1
25    8     17    1
26    8     9     1
27    9     14    ar
28    9     10    ar
29    10    11    ar
30    10    38    1
31    11    12    ar
32    11    39    1
33    12    13    ar
34    12    40    1
35    13    14    ar
36    13    41    1
37    14    15    1
38    15    16    1
39    16    21    ar
40    16    17    ar
41    17    18    ar
42    18    19    ar
43    18    42    1
44    19    20    ar
45    19    43    1
46    20    21    ar
47    20    44    1
48    21    45    1
49    46    47    1
@<TRIPOS>SUBSTRUCTURE
1   LIG    1    
 
########## Number      : 638
########## Name        : ZINC00004228
########## Description : AM1BCC_CHARGES =  -0.0001 ORIGINAL_CHARGES =   0.0000

@<TRIPOS>MOLECULE
ZINC00004228
35    35    1     0     0    
SMALL
USER_CHARGES
****
****
@<TRIPOS>ATOM
1     C1       5.8814   -5.6455    4.3709 C.3     1  LIG  -0.0937   0.0000 
2     C2       4.7351   -6.0411    3.4512 C.3     1  LIG  -0.0782   0.0000 
3     C3       4.6521   -5.1145    2.2303 C.3     1  LIG  -0.0867   0.0000 
4     C4       3.6107   -5.5708    1.1822 C.3     1  LIG  -0.0511   0.0000 
5     C5       2.1967   -5.6455    1.8023 C.3     1  LIG  -0.1079   0.0000 
6     C6       3.6068   -4.6316   -0.1004 C.3     1  LIG  -0.1634   0.1220 
7     C7       2.8334   -5.4106   -1.1765 C.2     1  LIG   0.7027   0.5690 
8     O1       3.2475   -6.4740   -1.6426 O.2     1  LIG  -0.5828  -0.5700 
9     N1       1.6246   -4.8789   -1.5755 N.am    1  LIG  -0.5547  -0.4900 
10    C8       1.0655   -3.7015   -1.1506 C.2     1  LIG   0.5570   0.5000 
11    S1      -0.4247   -3.1930   -1.7072 S.2     1  LIG  -0.4530  -0.3800 
12    N2       1.7909   -2.9521   -0.2605 N.am    1  LIG  -0.5577  -0.4900 
13    C9       3.0386   -3.2502    0.2482 C.2     1  LIG   0.7044   0.5690 
14    O2       3.6476   -2.4387    0.9465 O.2     1  LIG  -0.5841  -0.5700 
15    C10      5.0479   -4.4229   -0.6664 C.3     1  LIG  -0.0410   0.1382 
16    C11      5.0966   -3.6776   -1.9780 C.2     1  LIG  -0.2014  -0.2882 
17    C12      5.5385   -4.2088   -3.1237 C.2     1  LIG  -0.1873  -0.3000 
18    H1       1.1011   -5.4156   -2.2602 H       1  LIG   0.3656   0.3700 
19    H2       1.3945   -2.0591    0.0160 H       1  LIG   0.3648   0.3700 
20    H3       5.9182   -6.3119    5.2383 H       1  LIG   0.0358   0.0000 
21    H4       6.8428   -5.7118    3.8515 H       1  LIG   0.0339   0.0000 
22    H5       5.7564   -4.6205    4.7343 H       1  LIG   0.0376   0.0000 
23    H6       4.8785   -7.0774    3.1248 H       1  LIG   0.0396   0.0000 
24    H7       3.8038   -6.0011    4.0257 H       1  LIG   0.0420   0.0000 
25    H8       4.4328   -4.1016    2.5828 H       1  LIG   0.0699   0.0000 
26    H9       5.6477   -5.0940    1.7757 H       1  LIG   0.0462   0.0000 
27    H10      3.8456   -6.6111    0.8891 H       1  LIG   0.0798   0.0000 
28    H11      1.4381   -5.9042    1.0582 H       1  LIG   0.0362   0.0000 
29    H12      2.1496   -6.4255    2.5691 H       1  LIG   0.0555   0.0000 
30    H13      1.9108   -4.6999    2.2738 H       1  LIG   0.0455   0.0000 
31    H14      5.6572   -3.8383    0.0336 H       1  LIG   0.0848   0.0000 
32    H15      5.5467   -5.3957   -0.7721 H       1  LIG   0.0768   0.0000 
33    H16      4.7696   -2.6407   -1.9788 H       1  LIG   0.1252   0.1500 
34    H17      5.5584   -3.6182   -4.0332 H       1  LIG   0.1188   0.1500 
35    H18      5.8835   -5.2358   -3.1773 H       1  LIG   0.1208   0.1500 
@<TRIPOS>BOND
1     1     2     1
2     1     20    1
3     1     21    1
4     1     22    1
5     2     3     1
6     2     23    1
7     2     24    1
8     3     4     1
9     3     25    1
10    3     26    1
11    4     5     1
12    4     6     1
13    4     27    1
14    5     28    1
15    5     29    1
16    5     30    1
17    6     13    1
18    6     7     1
19    6     15    1
20    7     8     2
21    7     9     am
22    9     10    1
23    9     18    1
24    10    11    2
25    10    12    1
26    12    13    am
27    12    19    1
28    13    14    2
29    15    16    1
30    15    31    1
31    15    32    1
32    16    17    2
33    16    33    1
34    17    34    1
35    17    35    1
@<TRIPOS>SUBSTRUCTURE
1   LIG    1    
 
########## Number      : 639
########## Name        : ZINC00004257
########## Description : AM1BCC_CHARGES =  -0.0001 ORIGINAL_CHARGES =  -0.0000

@<TRIPOS>MOLECULE
ZINC00004257
29    31    1     0     0    
SMALL
USER_CHARGES
****
****
@<TRIPOS>ATOM
1     C1       4.2911    4.5904    0.7124 C.3     1  LIG  -0.0910   0.0000 
2     C2       4.3790    6.0324    0.1636 C.3     1  LIG  -0.0812   0.1382 
3     C3       3.4999    6.0186   -1.0428 C.2     1  LIG  -0.1302  -0.2882 
4     C4       3.0517    4.7937   -1.3319 C.2     1  LIG  -0.1984  -0.2882 
5     C5       3.5473    3.7727   -0.3662 C.3     1  LIG   0.1066   0.3938 
6     N1       2.4431    3.0141    0.2008 N.pl3   1  LIG  -0.0517   0.3140 
7     C6       1.3202    3.4519    0.8469 C.ar    1  LIG   0.4908   0.1054 
8     C7       0.6413    2.2901    1.1586 C.ar    1  LIG  -0.2836   0.2272 
9     C8      -0.5503    2.4655    1.8288 C.ar    1  LIG   0.6485   0.4870 
10    N2      -0.9979    3.6938    2.1468 N.ar    1  LIG  -0.7678  -0.6200 
11    C9      -0.2413    4.7634    1.7883 C.ar    1  LIG   0.9276   0.7200 
12    N3       0.9404    4.7067    1.1297 N.ar    1  LIG  -0.7583  -0.5670 
13    N4      -0.7181    6.0169    2.1251 N.pl3   1  LIG  -0.9436  -0.9000 
14    Cl1     -1.4634    1.1071    2.2597 Cl      1  LIG  -0.1040  -0.1770 
15    N5       1.3483    1.2123    0.7083 N.2     1  LIG  -0.1587  -0.2272 
16    N6       2.4542    1.6642    0.1230 N.2     1  LIG  -0.1387  -0.4180 
17    C10      3.8659    7.0419    1.1924 C.3     1  LIG   0.1328   0.2800 
18    O1       4.1141    8.3724    0.7500 O.3     1  LIG  -0.5966  -0.6800 
19    H1      -1.5964    6.1004    2.6159 H       1  LIG   0.4514   0.4000 
20    H2      -0.1848    6.8366    1.8739 H       1  LIG   0.4501   0.4000 
21    H3       5.0742    8.4669    0.6282 H       1  LIG   0.3955   0.4000 
22    H4       3.8046    4.5495    1.6944 H       1  LIG   0.0708   0.0000 
23    H5       5.3015    4.1865    0.8558 H       1  LIG   0.0565   0.0000 
24    H6       5.4290    6.2511   -0.0865 H       1  LIG   0.0592   0.0000 
25    H7       3.2762    6.8966   -1.6332 H       1  LIG   0.1540   0.1500 
26    H8       2.4232    4.5675   -2.1825 H       1  LIG   0.1534   0.1500 
27    H9       4.2577    3.0647   -0.8210 H       1  LIG   0.0935   0.0000 
28    H10      2.7899    6.9406    1.3691 H       1  LIG   0.0868   0.0000 
29    H11      4.3761    6.9117    2.1530 H       1  LIG   0.0262   0.0000 
@<TRIPOS>BOND
1     1     5     1
2     1     2     1
3     1     22    1
4     1     23    1
5     2     3     1
6     2     17    1
7     2     24    1
8     3     4     2
9     3     25    1
10    4     5     1
11    4     26    1
12    5     6     1
13    5     27    1
14    6     16    1
15    6     7     1
16    7     12    ar
17    7     8     ar
18    8     9     ar
19    8     15    1
20    9     10    ar
21    9     14    1
22    10    11    ar
23    11    12    ar
24    11    13    1
25    13    19    1
26    13    20    1
27    15    16    2
28    17    18    1
29    17    28    1
30    17    29    1
31    18    21    1
@<TRIPOS>SUBSTRUCTURE
1   LIG    1    
 
########## Number      : 640
########## Name        : ZINC00004285
########## Description : AM1BCC_CHARGES =   0.9998 ORIGINAL_CHARGES =   1.0000

@<TRIPOS>MOLECULE
ZINC00004285
27    28    1     0     0    
SMALL
USER_CHARGES
****
****
@<TRIPOS>ATOM
1     C1       2.3283   -8.5742    0.4289 C.ar    1  LIG  -0.0945  -0.1500 
2     C2       1.4600   -7.4777    0.4672 C.ar    1  LIG  -0.1330  -0.1500 
3     C3       1.6343   -6.3603   -0.3728 C.ar    1  LIG   0.0977   0.1000 
4     C4       2.7367   -6.3917   -1.2473 C.ar    1  LIG  -0.1641  -0.1500 
5     C5       3.6042   -7.4898   -1.2862 C.ar    1  LIG   0.0390   0.1770 
6     C6       3.4034   -8.5832   -0.4516 C.ar    1  LIG  -0.1139  -0.1500 
7     Cl1      4.9337   -7.4873   -2.3823 Cl      1  LIG  -0.0568  -0.1770 
8     N1       0.7562   -5.2728   -0.3075 N.pl3   1  LIG  -0.6420  -0.8382 
9     C7      -0.6861   -5.5591   -0.3726 C.3     1  LIG   0.1616   0.3691 
10    C8      -1.4900   -4.4282    0.2601 C.3     1  LIG   0.0991   0.5030 
11    C9       0.3666   -2.8424   -0.1890 C.3     1  LIG   0.0998   0.5030 
12    C10      1.1824   -3.9647   -0.8231 C.3     1  LIG   0.1605   0.3691 
13    H1       2.1645   -9.4169    1.0949 H       1  LIG   0.1567   0.1500 
14    H2       0.6514   -7.5013    1.1945 H       1  LIG   0.1417   0.1500 
15    H3       2.9221   -5.5646   -1.9287 H       1  LIG   0.1439   0.1500 
16    H4       4.0729   -9.4383   -0.4746 H       1  LIG   0.1678   0.1500 
17    H5      -0.9763   -5.6822   -1.4241 H       1  LIG   0.0512   0.0000 
18    H6      -0.9580   -6.4862    0.1418 H       1  LIG   0.1152   0.0000 
19    H7      -2.5628   -4.5504    0.0855 H       1  LIG   0.1089   0.0000 
20    H8      -1.3037   -4.3449    1.3362 H       1  LIG   0.1197   0.0000 
21    H9       0.5646   -1.8799   -0.6695 H       1  LIG   0.1090   0.0000 
22    H10      0.5547   -2.7568    0.8866 H       1  LIG   0.1208   0.0000 
23    H11      2.2365   -3.7740   -0.5877 H       1  LIG   0.1197   0.0000 
24    H12      1.0677   -3.9418   -1.9140 H       1  LIG   0.0477   0.0000 
25    N2      -1.0902   -3.1276   -0.3578 N.4     1  LIG  -0.7615  -0.9060 
26    H13     -1.6383   -2.3661    0.0650 H       1  LIG   0.4568   0.4500 
27    H14     -1.3321   -3.1277   -1.3585 H       1  LIG   0.4488   0.4500 
@<TRIPOS>BOND
1     1     6     ar
2     1     2     ar
3     1     13    1
4     2     3     ar
5     2     14    1
6     3     4     ar
7     3     8     1
8     4     5     ar
9     4     15    1
10    5     6     ar
11    5     7     1
12    6     16    1
13    8     12    1
14    8     9     1
15    9     10    1
16    9     17    1
17    9     18    1
18    10    19    1
19    10    20    1
20    10    25    1
21    11    12    1
22    11    21    1
23    11    22    1
24    11    25    1
25    12    23    1
26    12    24    1
27    25    26    1
28    25    27    1
@<TRIPOS>SUBSTRUCTURE
1   LIG    1    
 
########## Number      : 641
########## Name        : ZINC00004316
########## Description : AM1BCC_CHARGES =  -0.0000 ORIGINAL_CHARGES =  -0.0000

@<TRIPOS>MOLECULE
ZINC00004316
16    16    1     0     0    
SMALL
USER_CHARGES
****
****
@<TRIPOS>ATOM
1     C1       5.9611   -9.1546   -0.4427 C.ar    1  LIG  -0.1307  -0.1500 
2     C2       5.1522  -10.0575    0.2365 C.ar    1  LIG  -0.1332  -0.1500 
3     C3       3.9763   -9.6153    0.8421 C.ar    1  LIG  -0.1603  -0.1500 
4     C4       3.5962   -8.2641    0.7872 C.ar    1  LIG   0.0791   0.1000 
5     C5       4.3888   -7.3590    0.0519 C.ar    1  LIG   0.0850   0.1000 
6     C6       5.5838   -7.8148   -0.5292 C.ar    1  LIG  -0.1623  -0.1500 
7     N1       4.0660   -6.0070   -0.0380 N.pl3   1  LIG  -0.8039  -0.9000 
8     N2       2.4001   -7.8735    1.3847 N.pl3   1  LIG  -0.8034  -0.9000 
9     H1       4.6172   -5.4026   -0.6335 H       1  LIG   0.3751   0.4000 
10    H2       3.1506   -5.6860    0.2425 H       1  LIG   0.3824   0.4000 
11    H3       2.1809   -6.8927    1.4834 H       1  LIG   0.3808   0.4000 
12    H4       1.8957   -8.5315    1.9647 H       1  LIG   0.3741   0.4000 
13    H5       6.8827   -9.4912   -0.9085 H       1  LIG   0.1303   0.1500 
14    H6       5.4360  -11.1039    0.2994 H       1  LIG   0.1303   0.1500 
15    H7       3.3568  -10.3356    1.3720 H       1  LIG   0.1282   0.1500 
16    H8       6.2278   -7.1226   -1.0674 H       1  LIG   0.1285   0.1500 
@<TRIPOS>BOND
1     1     6     ar
2     1     2     ar
3     1     13    1
4     2     3     ar
5     2     14    1
6     3     4     ar
7     3     15    1
8     4     5     ar
9     4     8     1
10    5     6     ar
11    5     7     1
12    6     16    1
13    7     9     1
14    7     10    1
15    8     11    1
16    8     12    1
@<TRIPOS>SUBSTRUCTURE
1   LIG    1    
 
########## Number      : 642
########## Name        : ZINC00004318
########## Description : AM1BCC_CHARGES =   1.9999 ORIGINAL_CHARGES =   2.0000

@<TRIPOS>MOLECULE
ZINC00004318
31    32    1     0     0    
SMALL
USER_CHARGES
****
****
@<TRIPOS>ATOM
1     C1       0.9497    5.7127    9.1308 C.3     1  LIG   0.0972   0.5030 
2     C2       1.1204    5.2164    7.6937 C.3     1  LIG   0.0970   0.5030 
3     N1       1.2680    6.5295    6.8840 N.4     1  LIG  -0.6401  -1.0120 
4     C3      -0.1206    7.2030    6.8573 C.3     1  LIG   0.0955   0.5030 
5     C4      -0.2918    7.7011    8.2996 C.3     1  LIG   0.0954   0.5030 
6     N2       1.0191    7.2536    8.9806 N.4     1  LIG  -0.6401  -1.0120 
7     C5       2.0113    7.3904    7.8631 C.3     1  LIG   0.3151   1.0060 
8     C6       1.3517    7.9295   10.2894 C.3     1  LIG   0.1140   0.5030 
9     C7       1.6023    9.4245   10.1502 C.3     1  LIG  -0.0364   0.2900 
10    Cl1      2.0302   10.1122   11.7378 Cl      1  LIG  -0.0232  -0.2900 
11    C8       1.9155    6.2896    5.5410 C.3     1  LIG   0.1141   0.5030 
12    C9       2.2389    7.5729    4.7888 C.3     1  LIG  -0.0364   0.2900 
13    Cl2      3.0387    7.1792    3.2454 Cl      1  LIG  -0.0233  -0.2900 
14    H1       1.7806    5.3911    9.7678 H       1  LIG   0.1512   0.0000 
15    H2      -0.0072    5.4421    9.5870 H       1  LIG   0.1545   0.0000 
16    H3       2.0408    4.6344    7.5767 H       1  LIG   0.1513   0.0000 
17    H4       0.2633    4.6554    7.3092 H       1  LIG   0.1543   0.0000 
18    H5      -0.0969    8.0394    6.1546 H       1  LIG   0.1487   0.0000 
19    H6      -0.8690    6.4674    6.5481 H       1  LIG   0.1543   0.0000 
20    H7      -0.3554    8.7915    8.3321 H       1  LIG   0.1489   0.0000 
21    H8      -1.1397    7.2546    8.8275 H       1  LIG   0.1541   0.0000 
22    H9       2.9802    6.9517    8.1296 H       1  LIG   0.1733   0.0000 
23    H10      2.0697    8.4263    7.5122 H       1  LIG   0.1695   0.0000 
24    H11      0.5139    7.7284   10.9671 H       1  LIG   0.1418   0.0000 
25    H12      2.2462    7.4327   10.6835 H       1  LIG   0.1312   0.0000 
26    H13      2.4354    9.6374    9.4755 H       1  LIG   0.0858   0.0000 
27    H14      0.7186    9.9628    9.8012 H       1  LIG   0.0966   0.0000 
28    H15      2.8344    5.7219    5.7299 H       1  LIG   0.1312   0.0000 
29    H16      1.2260    5.6571    4.9699 H       1  LIG   0.1417   0.0000 
30    H17      1.3431    8.1466    4.5424 H       1  LIG   0.0969   0.0000 
31    H18      2.9253    8.2124    5.3495 H       1  LIG   0.0858   0.0000 
@<TRIPOS>BOND
1     1     6     1
2     1     2     1
3     1     14    1
4     1     15    1
5     2     3     1
6     2     16    1
7     2     17    1
8     3     7     1
9     3     4     1
10    3     11    1
11    4     5     1
12    4     18    1
13    4     19    1
14    5     6     1
15    5     20    1
16    5     21    1
17    6     7     1
18    6     8     1
19    7     22    1
20    7     23    1
21    8     9     1
22    8     24    1
23    8     25    1
24    9     10    1
25    9     26    1
26    9     27    1
27    11    12    1
28    11    28    1
29    11    29    1
30    12    13    1
31    12    30    1
32    12    31    1
@<TRIPOS>SUBSTRUCTURE
1   LIG    1    
 
########## Number      : 643
########## Name        : ZINC00004319
########## Description : AM1BCC_CHARGES =   0.9999 ORIGINAL_CHARGES =   1.0000

@<TRIPOS>MOLECULE
ZINC00004319
49    50    1     0     0    
SMALL
USER_CHARGES
****
****
@<TRIPOS>ATOM
1     C1       4.1005   -4.3248   -2.6212 C.3     1  LIG  -0.1366   0.0000 
2     C2       4.6093   -5.1711   -1.4496 C.3     1  LIG   0.1299   0.5030 
3     C3       4.2636   -6.6540   -1.6780 C.3     1  LIG  -0.1075   0.0000 
4     C4       5.3416   -7.6038   -1.1388 C.3     1  LIG  -0.0323   0.1435 
5     C5       4.9476   -9.0480   -1.3197 C.ar    1  LIG  -0.1145  -0.1435 
6     C6       5.2846   -9.7363   -2.4929 C.ar    1  LIG  -0.1182  -0.1500 
7     C7       4.9033  -11.0679   -2.6648 C.ar    1  LIG  -0.1177  -0.1500 
8     C8       4.1790  -11.7213   -1.6693 C.ar    1  LIG  -0.1093  -0.1500 
9     C9       3.8335  -11.0436   -0.5015 C.ar    1  LIG  -0.1187  -0.1500 
10    C10      4.2136   -9.7120   -0.3273 C.ar    1  LIG  -0.1274  -0.1500 
11    C11      4.4627   -5.1906    1.1037 C.3     1  LIG   0.0993   0.5030 
12    C12      3.8749   -4.3417    2.2327 C.3     1  LIG   0.1947   0.4235 
13    C13      4.2690   -4.9039    3.5878 C.ar    1  LIG  -0.2285  -0.1435 
14    C14      5.5810   -4.7954    4.0649 C.ar    1  LIG  -0.0532  -0.1500 
15    C15      5.9303   -5.3318    5.3037 C.ar    1  LIG  -0.2189  -0.1500 
16    C16      4.9722   -5.9880    6.0821 C.ar    1  LIG   0.1964   0.0825 
17    C17      3.6517   -6.1134    5.6300 C.ar    1  LIG  -0.1633   0.0862 
18    C18      3.3159   -5.5693    4.3769 C.ar    1  LIG  -0.0200  -0.1500 
19    C19      2.5572   -6.7997    6.3814 C.2     1  LIG   0.6773   0.5438 
20    O1       1.4874   -7.0531    5.8335 O.2     1  LIG  -0.6261  -0.5700 
21    N1       2.7941   -7.1170    7.6969 N.am    1  LIG  -0.6428  -0.8000 
22    O2       5.3572   -6.5135    7.2859 O.3     1  LIG  -0.4921  -0.5325 
23    O3       4.3641   -3.0131    2.0999 O.3     1  LIG  -0.6382  -0.6800 
24    H1       2.0808   -7.5791    8.2495 H       1  LIG   0.3288   0.3700 
25    H2       3.6752   -6.9153    8.1583 H       1  LIG   0.3268   0.3700 
26    H3       6.3050   -6.3412    7.4207 H       1  LIG   0.4465   0.4500 
27    H4       4.1678   -2.5355    2.9250 H       1  LIG   0.4545   0.4000 
28    H5       4.5789   -4.6320   -3.5574 H       1  LIG   0.0990   0.0000 
29    H6       3.0164   -4.4242   -2.7451 H       1  LIG   0.0696   0.0000 
30    H7       4.3283   -3.2646   -2.4657 H       1  LIG   0.0647   0.0000 
31    H8       5.6989   -5.0209   -1.3863 H       1  LIG   0.1061   0.0000 
32    H9       3.2858   -6.8960   -1.2412 H       1  LIG   0.0663   0.0000 
33    H10      4.1640   -6.8464   -2.7550 H       1  LIG   0.0965   0.0000 
34    H11      6.2908   -7.4195   -1.6583 H       1  LIG   0.0625   0.0000 
35    H12      5.5473   -7.4220   -0.0795 H       1  LIG   0.0375   0.0000 
36    H13      5.8456   -9.2393   -3.2804 H       1  LIG   0.1326   0.1500 
37    H14      5.1703  -11.5952   -3.5763 H       1  LIG   0.1465   0.1500 
38    H15      3.8825  -12.7575   -1.8043 H       1  LIG   0.1480   0.1500 
39    H16      3.2667  -11.5519    0.2733 H       1  LIG   0.1450   0.1500 
40    H17      3.9331   -9.1959    0.5875 H       1  LIG   0.1209   0.1500 
41    H18      4.1490   -6.2349    1.1880 H       1  LIG   0.1161   0.0000 
42    H19      5.5546   -5.1164    1.0633 H       1  LIG   0.1122   0.0000 
43    H20      2.7748   -4.3380    2.1723 H       1  LIG   0.0677   0.0000 
44    H21      6.3434   -4.2921    3.4749 H       1  LIG   0.1435   0.1500 
45    H22      6.9562   -5.2342    5.6493 H       1  LIG   0.1561   0.1500 
46    H23      2.2970   -5.6576    4.0031 H       1  LIG   0.1730   0.1500 
47    N2       3.9471   -4.6711   -0.2061 N.4     1  LIG  -0.7628  -0.9060 
48    H24      4.0551   -3.6461   -0.1801 H       1  LIG   0.4667   0.4500 
49    H25      2.9317   -4.8335   -0.2621 H       1  LIG   0.4433   0.4500 
@<TRIPOS>BOND
1     1     2     1
2     1     28    1
3     1     29    1
4     1     30    1
5     2     3     1
6     2     31    1
7     2     47    1
8     3     4     1
9     3     32    1
10    3     33    1
11    4     5     1
12    4     34    1
13    4     35    1
14    5     10    ar
15    5     6     ar
16    6     7     ar
17    6     36    1
18    7     8     ar
19    7     37    1
20    8     9     ar
21    8     38    1
22    9     10    ar
23    9     39    1
24    10    40    1
25    11    12    1
26    11    41    1
27    11    42    1
28    11    47    1
29    12    13    1
30    12    23    1
31    12    43    1
32    13    18    ar
33    13    14    ar
34    14    15    ar
35    14    44    1
36    15    16    ar
37    15    45    1
38    16    17    ar
39    16    22    1
40    17    18    ar
41    17    19    1
42    18    46    1
43    19    20    2
44    19    21    am
45    21    24    1
46    21    25    1
47    22    26    1
48    23    27    1
49    47    48    1
50    47    49    1
@<TRIPOS>SUBSTRUCTURE
1   LIG    1    
 
########## Number      : 644
########## Name        : ZINC00004414
########## Description : AM1BCC_CHARGES =   0.9999 ORIGINAL_CHARGES =   1.0000

@<TRIPOS>MOLECULE
ZINC00004414
38    40    1     0     0    
SMALL
USER_CHARGES
****
****
@<TRIPOS>ATOM
1     C1      -0.7995   -0.2981    0.0290 C.3     1  LIG  -0.1015   0.0000 
2     C2       0.2902    0.7272   -0.2536 C.3     1  LIG  -0.0764   0.0000 
3     C3       0.7608    1.4701    1.0029 C.3     1  LIG  -0.0358   0.1382 
4     C4       1.5644    0.6887    2.0030 C.2     1  LIG  -0.1910  -0.2764 
5     C5       2.1337   -0.5217    1.8566 C.2     1  LIG  -0.0263  -0.1784 
6     C6       2.7655   -0.8909    3.1127 C.ar    1  LIG  -0.0639   0.0284 
7     C7       3.4409   -2.0602    3.4299 C.ar    1  LIG  -0.0712  -0.1500 
8     C8       3.8967   -2.1595    4.7296 C.ar    1  LIG   0.0933   0.0825 
9     C9       3.6866   -1.1623    5.6659 C.ar    1  LIG   0.0732   0.0825 
10    C10      3.0140    0.0080    5.3666 C.ar    1  LIG  -0.0944  -0.1500 
11    C11      2.5705    0.1425    4.0587 C.ar    1  LIG  -0.1654  -0.1435 
12    C12      1.8045    1.2575    3.4087 C.3     1  LIG   0.2122   0.7847 
13    C13      2.5039    3.3642    4.6539 C.3     1  LIG   0.0810   0.5030 
14    C14      3.9887    2.5176    2.8421 C.3     1  LIG   0.0868   0.5030 
15    O1       4.2078   -1.4827    6.8830 O.3     1  LIG  -0.3201  -0.3625 
16    C15      4.7709   -2.7823    6.6111 C.3     1  LIG   0.3205   0.5600 
17    O2       4.5758   -3.2188    5.2508 O.3     1  LIG  -0.3118  -0.3625 
18    H1      -1.1336   -0.7575   -0.9068 H       1  LIG   0.0576   0.0000 
19    H2      -0.4476   -1.0981    0.6861 H       1  LIG   0.0336   0.0000 
20    H3      -1.6673    0.1747    0.5002 H       1  LIG   0.0435   0.0000 
21    H4       1.1348    0.2448   -0.7588 H       1  LIG   0.0491   0.0000 
22    H5      -0.1122    1.4652   -0.9586 H       1  LIG   0.0622   0.0000 
23    H6       1.3674    2.3246    0.6786 H       1  LIG   0.0353   0.0000 
24    H7      -0.1195    1.8865    1.5087 H       1  LIG   0.0571   0.0000 
25    H8       2.1265   -1.1534    0.9831 H       1  LIG   0.1820   0.1500 
26    H9       3.5936   -2.8541    2.7094 H       1  LIG   0.1835   0.1500 
27    H10      2.8424    0.7637    6.1213 H       1  LIG   0.1577   0.1500 
28    H11      0.8209    1.4561    3.8646 H       1  LIG   0.1236   0.0000 
29    H12      2.8354    4.3854    4.4458 H       1  LIG   0.1015   0.0000 
30    H13      1.4648    3.3760    4.9921 H       1  LIG   0.1025   0.0000 
31    H14      3.1586    2.8979    5.3917 H       1  LIG   0.1069   0.0000 
32    H15      4.3561    3.5423    2.7367 H       1  LIG   0.0957   0.0000 
33    H16      4.6074    1.9635    3.5519 H       1  LIG   0.1119   0.0000 
34    H17      3.9760    2.0350    1.8624 H       1  LIG   0.1100   0.0000 
35    H18      5.8468   -2.7483    6.8176 H       1  LIG   0.0956   0.0000 
36    H19      4.3069   -3.5129    7.2836 H       1  LIG   0.0978   0.0000 
37    N1       2.5772    2.5887    3.3664 N.4     1  LIG  -0.6669  -0.9590 
38    H20      2.0635    3.1677    2.6901 H       1  LIG   0.4505   0.4500 
@<TRIPOS>BOND
1     1     2     1
2     1     18    1
3     1     19    1
4     1     20    1
5     2     3     1
6     2     21    1
7     2     22    1
8     3     4     1
9     3     23    1
10    3     24    1
11    4     12    1
12    4     5     2
13    5     6     1
14    5     25    1
15    6     11    ar
16    6     7     ar
17    7     8     ar
18    7     26    1
19    8     17    1
20    8     9     ar
21    9     10    ar
22    9     15    1
23    10    11    ar
24    10    27    1
25    11    12    1
26    12    28    1
27    12    37    1
28    13    29    1
29    13    30    1
30    13    31    1
31    13    37    1
32    14    32    1
33    14    33    1
34    14    34    1
35    14    37    1
36    15    16    1
37    16    17    1
38    16    35    1
39    16    36    1
40    37    38    1
@<TRIPOS>SUBSTRUCTURE
1   LIG    1    
 
########## Number      : 645
########## Name        : ZINC00004417
########## Description : AM1BCC_CHARGES =  -1.0001 ORIGINAL_CHARGES =  -1.0000

@<TRIPOS>MOLECULE
ZINC00004417
31    32    1     0     0    
SMALL
USER_CHARGES
****
****
@<TRIPOS>ATOM
1     C1       6.3184   -7.7267    3.5237 C.3     1  LIG  -0.0960   0.0000 
2     C2       5.6779   -8.0900    2.1960 C.3     1  LIG   0.1260   0.2800 
3     O1       5.0411   -6.9214    1.6824 O.3     1  LIG  -0.3202  -0.3625 
4     C3       4.3921   -7.0270    0.4754 C.ar    1  LIG   0.0846   0.0825 
5     C4       4.3156   -8.2052   -0.2811 C.ar    1  LIG  -0.1540  -0.1500 
6     C5       3.6251   -8.2280   -1.5180 C.ar    1  LIG  -0.0668   0.0000 
7     C6       3.4184   -9.3013   -2.4505 C.2     1  LIG  -0.1618  -0.1500 
8     C7       2.6845   -8.9218   -3.5523 C.2     1  LIG  -0.0893  -0.1920 
9     S1       2.2390   -7.2806   -3.4774 S.3     1  LIG   0.0346  -0.0800 
10    C8       3.0253   -7.0507   -1.9614 C.ar    1  LIG  -0.1126   0.0400 
11    C9       3.0923   -5.8574   -1.2136 C.ar    1  LIG  -0.1445  -0.1500 
12    C10      3.7801   -5.8552    0.0076 C.ar    1  LIG   0.0825   0.0825 
13    O2       3.9097   -4.7522    0.8189 O.3     1  LIG  -0.3189  -0.3625 
14    C11      3.3037   -3.5359    0.3850 C.3     1  LIG   0.1265   0.2800 
15    C12      3.5811   -2.4759    1.4359 C.3     1  LIG  -0.0960   0.0000 
16    C13      2.3245   -9.8399   -4.6748 C.2     1  LIG   0.9293   1.0320 
17    O3       2.7313  -11.0395   -4.5855 O.co2   1  LIG  -0.8088  -0.9000 
18    H1       6.8231   -8.5917    3.9629 H       1  LIG   0.0319   0.0000 
19    H2       7.0479   -6.9207    3.3920 H       1  LIG   0.0449   0.0000 
20    H3       5.5640   -7.3616    4.2285 H       1  LIG   0.0449   0.0000 
21    H4       6.4573   -8.4333    1.5061 H       1  LIG   0.0345   0.0000 
22    H5       4.9406   -8.8840    2.3611 H       1  LIG   0.0346   0.0000 
23    H6       4.7786   -9.1280    0.0537 H       1  LIG   0.1339   0.1500 
24    H7       3.8005  -10.3046   -2.3016 H       1  LIG   0.1647   0.1500 
25    H8       2.6085   -4.9678   -1.6029 H       1  LIG   0.1300   0.1500 
26    H9       3.7365   -3.2141   -0.5692 H       1  LIG   0.0331   0.0000 
27    H10      2.2198   -3.6648    0.2859 H       1  LIG   0.0330   0.0000 
28    H11      3.1360   -1.5184    1.1510 H       1  LIG   0.0313   0.0000 
29    H12      3.1754   -2.7798    2.4065 H       1  LIG   0.0454   0.0000 
30    H13      4.6593   -2.3389    1.5700 H       1  LIG   0.0455   0.0000 
31    O4       1.6423   -9.3495   -5.6264 O.co2   1  LIG  -0.8224  -0.9000 
@<TRIPOS>BOND
1     1     2     1
2     1     18    1
3     1     19    1
4     1     20    1
5     2     3     1
6     2     21    1
7     2     22    1
8     3     4     1
9     4     12    ar
10    4     5     ar
11    5     6     ar
12    5     23    1
13    6     10    ar
14    6     7     1
15    7     8     2
16    7     24    1
17    8     9     1
18    8     16    1
19    9     10    1
20    10    11    ar
21    11    12    ar
22    11    25    1
23    12    13    1
24    13    14    1
25    14    15    1
26    14    26    1
27    14    27    1
28    15    28    1
29    15    29    1
30    15    30    1
31    16    17    2
32    16    31    1
@<TRIPOS>SUBSTRUCTURE
1   LIG    1    
 
########## Number      : 646
########## Name        : ZINC00004448
########## Description : AM1BCC_CHARGES =  -0.0000 ORIGINAL_CHARGES =   0.0000

@<TRIPOS>MOLECULE
ZINC00004448
41    44    1     0     0    
SMALL
USER_CHARGES
****
****
@<TRIPOS>ATOM
1     C1      -1.5657    5.4651    2.8437 C.3     1  LIG  -0.1226   0.1800 
2     C2      -2.5809    6.1455    2.0027 C.2     1  LIG   0.3944   0.0065 
3     N1      -3.2122    7.2601    2.3214 N.2     1  LIG  -0.6670  -0.5653 
4     C3      -4.0624    7.5150    1.2783 C.2     1  LIG   0.2900   0.0772 
5     C4      -3.9528    6.5502    0.3078 C.2     1  LIG  -0.2580  -0.3016 
6     N2      -2.9938    5.6897    0.7708 N.pl3   1  LIG  -0.2030   0.0476 
7     C5      -2.5562    4.4938    0.0733 C.3     1  LIG   0.0398   0.2556 
8     C6      -1.7034    4.7745   -1.1763 C.3     1  LIG  -0.1818   0.0610 
9     C7      -0.3611    5.4577   -0.7937 C.3     1  LIG  -0.0692   0.0000 
10    C8       0.5257    5.7223   -2.0202 C.3     1  LIG  -0.0333   0.1800 
11    C9       0.6213    4.4755   -2.8278 C.2     1  LIG   0.0094  -0.3316 
12    C10     -0.2663    3.4202   -2.7818 C.2     1  LIG  -0.2436  -0.0860 
13    C11      0.2082    2.4189   -3.6754 C.ar    1  LIG  -0.0415   0.0000 
14    C12     -0.2455    1.1346   -4.0452 C.ar    1  LIG  -0.0816  -0.1500 
15    C13      0.4808    0.3850   -4.9759 C.ar    1  LIG  -0.1458  -0.1500 
16    C14      1.6458    0.8935   -5.5399 C.ar    1  LIG  -0.1173  -0.1500 
17    C15      2.1166    2.1629   -5.1939 C.ar    1  LIG  -0.1365  -0.1500 
18    C16      1.3815    2.9133   -4.2609 C.ar    1  LIG  -0.0580  -0.1516 
19    N3       1.5970    4.1779   -3.7426 N.pl3   1  LIG  -0.0576   0.0476 
20    C17      2.6967    5.0433   -4.1103 C.3     1  LIG   0.0245   0.2556 
21    C18     -1.4339    3.4530   -1.9115 C.2     1  LIG   0.6153   0.5950 
22    O1      -2.1944    2.4924   -1.8252 O.2     1  LIG  -0.5514  -0.5700 
23    H1      -1.3780    6.0407    3.7557 H       1  LIG   0.0752   0.0000 
24    H2      -1.9119    4.4704    3.1401 H       1  LIG   0.0514   0.0000 
25    H3      -0.6166    5.3659    2.3095 H       1  LIG   0.0419   0.0000 
26    H4      -4.7127    8.3777    1.2811 H       1  LIG   0.0405   0.1500 
27    H5      -4.4539    6.4091   -0.6397 H       1  LIG   0.1762   0.1500 
28    H6      -2.0171    3.8511    0.7778 H       1  LIG   0.0710   0.0000 
29    H7      -3.4736    3.9558   -0.1982 H       1  LIG   0.0874   0.0000 
30    H8      -2.2323    5.4787   -1.8404 H       1  LIG   0.0827   0.0000 
31    H9      -0.5427    6.4103   -0.2837 H       1  LIG   0.0664   0.0000 
32    H10      0.1850    4.8140   -0.0905 H       1  LIG   0.0539   0.0000 
33    H11      0.0886    6.5204   -2.6314 H       1  LIG   0.0674   0.0000 
34    H12      1.5136    6.0551   -1.6842 H       1  LIG   0.0613   0.0000 
35    H13     -1.1522    0.7208   -3.6125 H       1  LIG   0.1577   0.1500 
36    H14      0.1307   -0.6042   -5.2584 H       1  LIG   0.1336   0.1500 
37    H15      2.1991    0.2965   -6.2605 H       1  LIG   0.1316   0.1500 
38    H16      3.0276    2.5483   -5.6402 H       1  LIG   0.1323   0.1500 
39    H17      2.9230    4.9109   -5.1711 H       1  LIG   0.0617   0.0000 
40    H18      2.4175    6.0859   -3.9419 H       1  LIG   0.0552   0.0000 
41    H19      3.5594    4.7747   -3.4959 H       1  LIG   0.0474   0.0000 
@<TRIPOS>BOND
1     1     2     1
2     1     23    1
3     1     24    1
4     1     25    1
5     2     6     1
6     2     3     2
7     3     4     1
8     4     5     2
9     4     26    1
10    5     6     1
11    5     27    1
12    6     7     1
13    7     8     1
14    7     28    1
15    7     29    1
16    8     21    1
17    8     9     1
18    8     30    1
19    9     10    1
20    9     31    1
21    9     32    1
22    10    11    1
23    10    33    1
24    10    34    1
25    11    19    1
26    11    12    2
27    12    13    1
28    12    21    1
29    13    18    ar
30    13    14    ar
31    14    15    ar
32    14    35    1
33    15    16    ar
34    15    36    1
35    16    17    ar
36    16    37    1
37    17    18    ar
38    17    38    1
39    18    19    1
40    19    20    1
41    20    39    1
42    20    40    1
43    20    41    1
44    21    22    2
@<TRIPOS>SUBSTRUCTURE
1   LIG    1    
 
########## Number      : 647
########## Name        : ZINC00004479
########## Description : AM1BCC_CHARGES =   1.0000 ORIGINAL_CHARGES =   1.0000

@<TRIPOS>MOLECULE
ZINC00004479
42    44    1     0     0    
SMALL
USER_CHARGES
****
****
@<TRIPOS>ATOM
1     C1       1.6747    0.4607   -6.4376 C.3     1  LIG  -0.1222   0.0000 
2     C2       2.9313    0.5462   -5.5549 C.3     1  LIG   0.1277   0.5030 
3     C3       4.0878    0.9995   -6.4492 C.3     1  LIG   0.0750   0.3001 
4     N1       5.2821    1.4914   -5.7974 N.pl3   1  LIG  -0.3443  -0.4771 
5     C4       5.8240    1.0227   -4.5798 C.ar    1  LIG   0.0076   0.1170 
6     C5       5.3590    0.1273   -3.6348 C.ar    1  LIG  -0.1550  -0.1435 
7     C6       6.1967   -0.0861   -2.5124 C.ar    1  LIG  -0.1047  -0.1500 
8     C7       7.4403    0.5559   -2.3614 C.ar    1  LIG  -0.1057  -0.1500 
9     C8       7.8896    1.4504   -3.3230 C.ar    1  LIG  -0.0923  -0.1500 
10    C9       7.0629    1.6599   -4.4051 C.ar    1  LIG   0.0140   0.1170 
11    N2       7.2981    2.5028   -5.4857 N.pl3   1  LIG  -0.3946  -0.5470 
12    C10      6.2162    2.4064   -6.3775 C.2     1  LIG   0.5002   0.5000 
13    S1       6.1421    3.2278   -7.8214 S.2     1  LIG  -0.3921  -0.3800 
14    C11      4.0268   -0.5573   -3.6237 C.3     1  LIG   0.1784   0.6465 
15    C12      2.1228   -1.7559   -4.6866 C.3     1  LIG   0.1718   0.6412 
16    C13      1.7326   -2.5887   -5.8734 C.2     1  LIG  -0.2965  -0.2882 
17    C14      0.4877   -2.8939   -6.2876 C.2     1  LIG  -0.0006  -0.2764 
18    C15      0.2766   -3.7351   -7.5187 C.3     1  LIG  -0.0895   0.1382 
19    C16     -0.7809   -2.4640   -5.6063 C.3     1  LIG  -0.0939   0.1382 
20    H1       8.1249    3.0727   -5.6119 H       1  LIG   0.3840   0.3700 
21    H2       1.4681    1.4392   -6.8884 H       1  LIG   0.0924   0.0000 
22    H3       1.8005   -0.2470   -7.2628 H       1  LIG   0.0741   0.0000 
23    H4       0.7796    0.2058   -5.8648 H       1  LIG   0.0670   0.0000 
24    H5       2.6933    1.2698   -4.7584 H       1  LIG   0.1152   0.0000 
25    H6       4.4014    0.1934   -7.1258 H       1  LIG   0.0678   0.0000 
26    H7       3.7276    1.8051   -7.0992 H       1  LIG   0.1386   0.0000 
27    H8       5.8771   -0.7639   -1.7210 H       1  LIG   0.1476   0.1500 
28    H9       8.0457    0.3545   -1.4816 H       1  LIG   0.1642   0.1500 
29    H10      8.8422    1.9561   -3.2198 H       1  LIG   0.1691   0.1500 
30    H11      4.1803   -1.5525   -3.1883 H       1  LIG   0.1015   0.0000 
31    H12      3.3312   -0.0087   -2.9762 H       1  LIG   0.1054   0.0000 
32    H13      2.4547   -2.4668   -3.9206 H       1  LIG   0.0976   0.0000 
33    H14      1.3235   -1.1564   -4.2451 H       1  LIG   0.0994   0.0000 
34    H15      2.5690   -2.9876   -6.4459 H       1  LIG   0.1421   0.1500 
35    H16     -0.2620   -4.6535   -7.2631 H       1  LIG   0.0756   0.0000 
36    H17     -0.3105   -3.1813   -8.2587 H       1  LIG   0.0709   0.0000 
37    H18      1.2200   -4.0245   -7.9935 H       1  LIG   0.0566   0.0000 
38    H19     -1.4006   -3.3382   -5.3795 H       1  LIG   0.0813   0.0000 
39    H20     -0.6121   -1.9402   -4.6631 H       1  LIG   0.0372   0.0000 
40    H21     -1.3519   -1.7978   -6.2613 H       1  LIG   0.0731   0.0000 
41    N3       3.3175   -0.8050   -4.9361 N.4     1  LIG  -0.6912  -0.9590 
42    H22      3.9259   -1.3371   -5.5809 H       1  LIG   0.4472   0.4500 
@<TRIPOS>BOND
1     1     2     1
2     1     21    1
3     1     22    1
4     1     23    1
5     2     3     1
6     2     24    1
7     2     41    1
8     3     4     1
9     3     25    1
10    3     26    1
11    4     12    1
12    4     5     1
13    5     10    ar
14    5     6     ar
15    6     7     ar
16    6     14    1
17    7     8     ar
18    7     27    1
19    8     9     ar
20    8     28    1
21    9     10    ar
22    9     29    1
23    10    11    1
24    11    12    1
25    11    20    1
26    12    13    2
27    14    30    1
28    14    31    1
29    14    41    1
30    15    16    1
31    15    32    1
32    15    33    1
33    15    41    1
34    16    17    2
35    16    34    1
36    17    18    1
37    17    19    1
38    18    35    1
39    18    36    1
40    18    37    1
41    19    38    1
42    19    39    1
43    19    40    1
44    41    42    1
@<TRIPOS>SUBSTRUCTURE
1   LIG    1    
 
########## Number      : 648
########## Name        : ZINC00004495
########## Description : AM1BCC_CHARGES =  -0.0000 ORIGINAL_CHARGES =   0.0000

@<TRIPOS>MOLECULE
ZINC00004495
30    32    1     0     0    
SMALL
USER_CHARGES
****
****
@<TRIPOS>ATOM
1     C1       8.0924   -6.3124    2.6546 C.ar    1  LIG  -0.0554  -0.1500 
2     C2       8.9501   -7.4143    2.6217 C.ar    1  LIG  -0.1645  -0.1500 
3     C3       8.6639   -8.4841    1.7808 C.ar    1  LIG   0.1460   0.0825 
4     C4       7.5305   -8.4687    0.9734 C.ar    1  LIG  -0.2205  -0.1500 
5     C5       6.6743   -7.3649    1.0076 C.ar    1  LIG  -0.0570  -0.1500 
6     C6       6.9467   -6.2689    1.8433 C.ar    1  LIG  -0.1137   0.0284 
7     C7       6.0447   -5.1015    1.9029 C.2     1  LIG   0.1885   0.0483 
8     C8       5.5165   -4.5592    0.7964 C.2     1  LIG  -0.3101  -0.1356 
9     C9       4.6276   -3.3860    0.9126 C.2     1  LIG   0.5975   0.4694 
10    O1       4.1388   -2.8840   -0.0902 O.2     1  LIG  -0.5238  -0.5700 
11    C10      4.3801   -2.8796    2.2799 C.ar    1  LIG  -0.2769   0.0862 
12    C11      3.5559   -1.7775    2.5405 C.ar    1  LIG   0.2415   0.0825 
13    C12      3.3569   -1.3392    3.8523 C.ar    1  LIG  -0.2938  -0.1500 
14    C13      3.9843   -2.0059    4.9011 C.ar    1  LIG   0.2178   0.0825 
15    C14      4.8065   -3.1029    4.6592 C.ar    1  LIG  -0.2919  -0.1500 
16    C15      5.0015   -3.5368    3.3457 C.ar    1  LIG   0.2158   0.0825 
17    O2       5.8245   -4.6237    3.1827 O.3     1  LIG  -0.2260  -0.1592 
18    O3       3.7696   -1.5528    6.1721 O.3     1  LIG  -0.4874  -0.5325 
19    O4       2.9352   -1.1159    1.5172 O.3     1  LIG  -0.4494  -0.5325 
20    O5       9.5221   -9.5467    1.7724 O.3     1  LIG  -0.4916  -0.5325 
21    H1       4.2682   -2.1130    6.7912 H       1  LIG   0.4287   0.4500 
22    H2       2.4091   -0.3845    1.8821 H       1  LIG   0.4238   0.4500 
23    H3       9.1907  -10.2080    1.1412 H       1  LIG   0.4237   0.4500 
24    H4       8.3354   -5.4839    3.3167 H       1  LIG   0.1501   0.1500 
25    H5       9.8345   -7.4297    3.2522 H       1  LIG   0.1568   0.1500 
26    H6       7.2990   -9.3040    0.3189 H       1  LIG   0.1406   0.1500 
27    H7       5.7865   -7.3794    0.3791 H       1  LIG   0.1451   0.1500 
28    H8       5.7128   -4.9317   -0.2025 H       1  LIG   0.1682   0.1500 
29    H9       2.7189   -0.4850    4.0624 H       1  LIG   0.1599   0.1500 
30    H10      5.2948   -3.6213    5.4798 H       1  LIG   0.1580   0.1500 
@<TRIPOS>BOND
1     1     6     ar
2     1     2     ar
3     1     24    1
4     2     3     ar
5     2     25    1
6     3     4     ar
7     3     20    1
8     4     5     ar
9     4     26    1
10    5     6     ar
11    5     27    1
12    6     7     1
13    7     17    1
14    7     8     2
15    8     9     1
16    8     28    1
17    9     10    2
18    9     11    1
19    11    16    ar
20    11    12    ar
21    12    13    ar
22    12    19    1
23    13    14    ar
24    13    29    1
25    14    15    ar
26    14    18    1
27    15    16    ar
28    15    30    1
29    16    17    1
30    18    21    1
31    19    22    1
32    20    23    1
@<TRIPOS>SUBSTRUCTURE
1   LIG    1    
 
########## Number      : 649
########## Name        : ZINC00004694
########## Description : AM1BCC_CHARGES =   1.0001 ORIGINAL_CHARGES =   1.0000

@<TRIPOS>MOLECULE
ZINC00004694
24    24    1     0     0    
SMALL
USER_CHARGES
****
****
@<TRIPOS>ATOM
1     C1       4.7361   -7.5122    0.4482 C.2     1  LIG  -0.1846  -0.3016 
2     C2       3.4220   -7.0973    0.4710 C.2     1  LIG   0.2024   0.0462 
3     N1       2.5743   -8.1825    0.3949 N.2     1  LIG  -0.7386  -0.5653 
4     C3       3.3561   -9.2380    0.3181 C.2     1  LIG   0.6206   0.2705 
5     N2       4.6773   -8.8734    0.3468 N.pl3   1  LIG  -0.3208   0.0332 
6     N3       3.0309  -10.5354    0.2228 N.pl3   1  LIG  -0.8868  -0.8840 
7     C4       2.8710   -5.7063    0.5812 C.3     1  LIG   0.1541   0.4610 
8     C5       2.4170   -5.0998   -0.7662 C.3     1  LIG   0.0065   0.2900 
9     C6       1.3345   -5.9431   -1.4672 C.3     1  LIG   0.0930   0.5030 
10    Cl1      3.8124   -4.8797   -1.8440 Cl      1  LIG  -0.1387  -0.2900 
11    O1       1.7604   -5.6864    1.4742 O.3     1  LIG  -0.6145  -0.6800 
12    H1       5.4654   -9.5046    0.3046 H       1  LIG   0.3230   0.2700 
13    H2       3.7190  -11.2795    0.1718 H       1  LIG   0.4032   0.4000 
14    H3       2.0610  -10.8332    0.2050 H       1  LIG   0.4162   0.4000 
15    H4       0.3718   -4.3227   -2.3949 H       1  LIG   0.4564   0.4500 
16    H5       1.5653   -5.0068   -3.3262 H       1  LIG   0.4633   0.4500 
17    H6       1.2981   -6.5405    1.4045 H       1  LIG   0.4456   0.4000 
18    H7       5.6758   -6.9804    0.4934 H       1  LIG   0.1973   0.1500 
19    H8       3.6807   -5.0769    0.9885 H       1  LIG   0.0847   0.0000 
20    H9       1.9228   -4.1337   -0.5465 H       1  LIG   0.1020   0.0000 
21    H10      1.7164   -6.8984   -1.8394 H       1  LIG   0.1434   0.0000 
22    H11      0.4716   -6.1246   -0.8200 H       1  LIG   0.1486   0.0000 
23    N4       0.8125   -5.2149   -2.6558 N.4     1  LIG  -0.8398  -0.8530 
24    H12      0.1052   -5.7737   -3.1515 H       1  LIG   0.4636   0.4500 
@<TRIPOS>BOND
1     1     5     1
2     1     2     2
3     1     18    1
4     2     3     1
5     2     7     1
6     3     4     2
7     4     5     1
8     4     6     1
9     5     12    1
10    6     13    1
11    6     14    1
12    7     8     1
13    7     11    1
14    7     19    1
15    8     9     1
16    8     10    1
17    8     20    1
18    9     21    1
19    9     22    1
20    9     23    1
21    11    17    1
22    15    23    1
23    16    23    1
24    23    24    1
@<TRIPOS>SUBSTRUCTURE
1   LIG    1    
 
########## Number      : 650
########## Name        : ZINC00004726
########## Description : AM1BCC_CHARGES =  -0.0002 ORIGINAL_CHARGES =  -0.0000

@<TRIPOS>MOLECULE
ZINC00004726
17    17    1     0     0    
SMALL
USER_CHARGES
****
****
@<TRIPOS>ATOM
1     C1       4.3480   -6.7381   -0.7831 C.ar    1  LIG  -0.0115  -0.1500 
2     C2       3.8664   -5.5366   -0.2628 C.ar    1  LIG  -0.1538  -0.1500 
3     C3       2.6276   -5.0471   -0.6800 C.ar    1  LIG   0.0746   0.1770 
4     C4       1.8638   -5.7498   -1.6135 C.ar    1  LIG  -0.1538  -0.1500 
5     C5       2.3415   -6.9517   -2.1364 C.ar    1  LIG  -0.0084  -0.1500 
6     C6       3.5844   -7.4333   -1.7223 C.ar    1  LIG  -0.3843  -0.0090 
7     S1       4.1782   -8.9719   -2.3602 S.o2    1  LIG   1.5295   1.4470 
8     O1       5.1093   -9.5195   -1.3944 O.2     1  LIG  -0.6573  -0.6500 
9     O2       3.0337   -9.7401   -2.8070 O.2     1  LIG  -0.6566  -0.6500 
10    N1       5.0489   -8.4418   -3.7304 N.pl3   1  LIG  -1.0281  -0.9780 
11    Cl1      2.0353   -3.5638   -0.0360 Cl      1  LIG  -0.0763  -0.1770 
12    H1       4.6465   -8.7265   -4.6320 H       1  LIG   0.4497   0.4200 
13    H2       5.3155   -7.4495   -3.7438 H       1  LIG   0.4471   0.4200 
14    H3       5.3131   -7.1099   -0.4506 H       1  LIG   0.1618   0.1500 
15    H4       4.4628   -4.9936    0.4657 H       1  LIG   0.1561   0.1500 
16    H5       0.8976   -5.3731   -1.9388 H       1  LIG   0.1559   0.1500 
17    H6       1.7382   -7.4903   -2.8615 H       1  LIG   0.1552   0.1500 
@<TRIPOS>BOND
1     1     6     ar
2     1     2     ar
3     1     14    1
4     2     3     ar
5     2     15    1
6     3     4     ar
7     3     11    1
8     4     5     ar
9     4     16    1
10    5     6     ar
11    5     17    1
12    6     7     1
13    7     8     2
14    7     9     2
15    7     10    1
16    10    12    1
17    10    13    1
@<TRIPOS>SUBSTRUCTURE
1   LIG    1    
 
########## Number      : 651
########## Name        : ZINC00004760
########## Description : AM1BCC_CHARGES =   1.0000 ORIGINAL_CHARGES =   1.0000

@<TRIPOS>MOLECULE
ZINC00004760
51    53    1     0     0    
SMALL
USER_CHARGES
****
****
@<TRIPOS>ATOM
1     C1       5.2537   -9.5391    1.5478 C.ar    1  LIG  -0.1080  -0.1500 
2     C2       5.7753   -8.4631    0.8387 C.ar    1  LIG  -0.1204  -0.1500 
3     C3       5.7199   -7.1714    1.3737 C.ar    1  LIG  -0.1334  -0.1500 
4     C4       5.1334   -6.9214    2.6277 C.ar    1  LIG  -0.1325  -0.1435 
5     C5       4.6282   -8.0347    3.3304 C.ar    1  LIG  -0.1220  -0.1500 
6     C6       4.6833   -9.3255    2.7967 C.ar    1  LIG  -0.1177  -0.1500 
7     C7       5.0610   -5.5026    3.2484 C.3     1  LIG   0.2137   0.4235 
8     C8       4.9401   -4.3872    2.1581 C.3     1  LIG  -0.1006   0.0000 
9     C9       3.6254   -4.3786    1.3659 C.3     1  LIG   0.1232   0.5030 
10    C10      1.1179   -4.0610    1.5910 C.3     1  LIG   0.1116   0.5030 
11    C11      0.4619   -2.6958    1.4872 C.3     1  LIG  -0.1017   0.0000 
12    C12      1.1448   -1.8766    2.5617 C.3     1  LIG  -0.1014   0.0000 
13    C13      2.5908   -2.3046    2.4339 C.3     1  LIG   0.1111   0.5030 
14    C14      6.3291   -5.2240    4.1412 C.3     1  LIG  -0.0816   0.0000 
15    C15      6.4118   -6.1190    5.3993 C.3     1  LIG  -0.0790   0.0000 
16    C16      7.5725   -5.7138    6.3076 C.3     1  LIG  -0.0760   0.0000 
17    C17      8.8995   -5.7237    5.5582 C.3     1  LIG  -0.0807   0.0000 
18    C18      8.8398   -4.8537    4.3083 C.3     1  LIG  -0.0770   0.0000 
19    C19      7.6785   -5.2485    3.3947 C.3     1  LIG  -0.0763   0.0000 
20    O1       3.9029   -5.3818    4.0881 O.3     1  LIG  -0.6660  -0.6800 
21    H1       3.2456   -6.0492    3.8301 H       1  LIG   0.4400   0.4000 
22    H2       5.3000  -10.5413    1.1323 H       1  LIG   0.1520   0.1500 
23    H3       6.2339   -8.6260   -0.1329 H       1  LIG   0.1477   0.1500 
24    H4       6.1623   -6.3746    0.7843 H       1  LIG   0.1279   0.1500 
25    H5       4.1920   -7.9167    4.3201 H       1  LIG   0.1285   0.1500 
26    H6       4.2849  -10.1629    3.3626 H       1  LIG   0.1487   0.1500 
27    H7       5.7637   -4.4415    1.4402 H       1  LIG   0.1005   0.0000 
28    H8       5.0533   -3.4106    2.6458 H       1  LIG   0.0708   0.0000 
29    H9       3.3291   -5.3917    1.0767 H       1  LIG   0.1117   0.0000 
30    H10      3.7164   -3.7691    0.4603 H       1  LIG   0.0912   0.0000 
31    H11      1.2133   -4.5540    0.6190 H       1  LIG   0.0996   0.0000 
32    H12      0.6000   -4.7160    2.2987 H       1  LIG   0.1055   0.0000 
33    H13      0.6572   -2.2610    0.4994 H       1  LIG   0.0957   0.0000 
34    H14     -0.6222   -2.7471    1.6221 H       1  LIG   0.0862   0.0000 
35    H15      1.0153   -0.8007    2.4151 H       1  LIG   0.0916   0.0000 
36    H16      0.7523   -2.1389    3.5513 H       1  LIG   0.0897   0.0000 
37    H17      3.1732   -2.1423    3.3446 H       1  LIG   0.1062   0.0000 
38    H18      3.0760   -1.8388    1.5698 H       1  LIG   0.0981   0.0000 
39    H19      6.1982   -4.2012    4.5286 H       1  LIG   0.0569   0.0000 
40    H20      5.4808   -6.0606    5.9742 H       1  LIG   0.0283   0.0000 
41    H21      6.5524   -7.1671    5.1133 H       1  LIG   0.0589   0.0000 
42    H22      7.3871   -4.7118    6.7136 H       1  LIG   0.0438   0.0000 
43    H23      7.6273   -6.3988    7.1613 H       1  LIG   0.0557   0.0000 
44    H24      9.6991   -5.3685    6.2179 H       1  LIG   0.0568   0.0000 
45    H25      9.1519   -6.7530    5.2752 H       1  LIG   0.0490   0.0000 
46    H26      8.7322   -3.8016    4.5998 H       1  LIG   0.0431   0.0000 
47    H27      9.7839   -4.9364    3.7579 H       1  LIG   0.0545   0.0000 
48    H28      7.8760   -6.2506    2.9975 H       1  LIG   0.0593   0.0000 
49    H29      7.6663   -4.5592    2.5448 H       1  LIG   0.0284   0.0000 
50    N1       2.4958   -3.7958    2.1767 N.4     1  LIG  -0.6894  -0.9590 
51    H30      2.5167   -4.2505    3.1001 H       1  LIG   0.4778   0.4500 
@<TRIPOS>BOND
1     1     6     ar
2     1     2     ar
3     1     22    1
4     2     3     ar
5     2     23    1
6     3     4     ar
7     3     24    1
8     4     5     ar
9     4     7     1
10    5     6     ar
11    5     25    1
12    6     26    1
13    7     8     1
14    7     14    1
15    7     20    1
16    8     9     1
17    8     27    1
18    8     28    1
19    9     29    1
20    9     30    1
21    9     50    1
22    10    11    1
23    10    31    1
24    10    32    1
25    10    50    1
26    11    12    1
27    11    33    1
28    11    34    1
29    12    13    1
30    12    35    1
31    12    36    1
32    13    37    1
33    13    38    1
34    13    50    1
35    14    19    1
36    14    15    1
37    14    39    1
38    15    16    1
39    15    40    1
40    15    41    1
41    16    17    1
42    16    42    1
43    16    43    1
44    17    18    1
45    17    44    1
46    17    45    1
47    18    19    1
48    18    46    1
49    18    47    1
50    19    48    1
51    19    49    1
52    20    21    1
53    50    51    1
@<TRIPOS>SUBSTRUCTURE
1   LIG    1    
 
########## Number      : 652
########## Name        : ZINC00004778
########## Description : AM1BCC_CHARGES =   0.0002 ORIGINAL_CHARGES =  -0.0000

@<TRIPOS>MOLECULE
ZINC00004778
34    37    1     0     0    
SMALL
USER_CHARGES
****
****
@<TRIPOS>ATOM
1     C1       6.3980   -7.6098   -0.3787 C.3     1  LIG  -0.0624   0.1435 
2     C2       6.6752   -7.0705    1.0021 C.ar    1  LIG  -0.0695  -0.1435 
3     C3       7.3543   -7.8962    1.8975 C.ar    1  LIG  -0.2337  -0.1500 
4     C4       7.6234   -7.4043    3.1508 C.ar    1  LIG   0.3953   0.1600 
5     N1       7.2673   -6.1715    3.5552 N.ar    1  LIG  -0.6656  -0.6200 
6     C5       6.5907   -5.3433    2.7032 C.ar    1  LIG   0.5810   0.4100 
7     C6       6.2794   -5.7676    1.4056 C.ar    1  LIG  -0.0408   0.1170 
8     N2       5.6954   -4.9490    0.4224 N.am    1  LIG  -0.4592  -0.5470 
9     C7       4.9764   -3.7850    0.4997 C.2     1  LIG   0.7357   0.5438 
10    O1       4.6999   -3.1638   -0.5297 O.2     1  LIG  -0.6366  -0.5700 
11    C8       4.4160   -3.2992    1.7699 C.ar    1  LIG  -0.2561   0.0862 
12    C9       3.1846   -2.6229    1.6794 C.ar    1  LIG  -0.0319  -0.1500 
13    C10      2.6132   -2.0362    2.7969 C.ar    1  LIG  -0.2729  -0.1500 
14    C11      3.3085   -2.1307    3.9777 C.ar    1  LIG   0.4379   0.1600 
15    N3       4.4924   -2.7682    4.0958 N.ar    1  LIG  -0.6901  -0.6200 
16    C12      5.0505   -3.3741    3.0035 C.ar    1  LIG   0.6480   0.4100 
17    N4       6.2855   -4.0434    3.1901 N.pl3   1  LIG  -0.6896  -0.3690 
18    C13      7.1037   -3.5728    4.3468 C.3     1  LIG   0.1348   0.0690 
19    C14      8.5879   -3.3291    4.2189 C.3     1  LIG  -0.1181  -0.2000 
20    C15      7.6594   -2.1703    4.4048 C.3     1  LIG  -0.1190  -0.2000 
21    H1       5.8055   -5.2687   -0.5352 H       1  LIG   0.3313   0.3700 
22    H2       7.0059   -7.0820   -1.1204 H       1  LIG   0.0501   0.0000 
23    H3       6.6378   -8.6764   -0.4503 H       1  LIG   0.0521   0.0000 
24    H4       5.3367   -7.5046   -0.6265 H       1  LIG   0.0568   0.0000 
25    H5       7.6717   -8.8968    1.6242 H       1  LIG   0.1481   0.1500 
26    H6       8.1517   -8.0004    3.8872 H       1  LIG   0.0281   0.1500 
27    H7       2.6599   -2.5427    0.7295 H       1  LIG   0.1624   0.1500 
28    H8       1.6657   -1.5143    2.7378 H       1  LIG   0.1522   0.1500 
29    H9       2.9287   -1.6859    4.8912 H       1  LIG   0.0280   0.1500 
30    H10      6.7592   -3.9979    5.2864 H       1  LIG   0.0979   0.1000 
31    H11      9.2166   -3.6155    5.0530 H       1  LIG   0.0730   0.1000 
32    H12      9.0495   -3.4524    3.2468 H       1  LIG   0.0791   0.1000 
33    H13      7.4984   -1.5148    3.5577 H       1  LIG   0.0806   0.1000 
34    H14      7.6574   -1.6697    5.3652 H       1  LIG   0.0733   0.1000 
@<TRIPOS>BOND
1     1     2     1
2     1     22    1
3     1     23    1
4     1     24    1
5     2     7     ar
6     2     3     ar
7     3     4     ar
8     3     25    1
9     4     5     ar
10    4     26    1
11    5     6     ar
12    6     17    1
13    6     7     ar
14    7     8     1
15    8     9     am
16    8     21    1
17    9     10    2
18    9     11    1
19    11    16    ar
20    11    12    ar
21    12    13    ar
22    12    27    1
23    13    14    ar
24    13    28    1
25    14    15    ar
26    14    29    1
27    15    16    ar
28    16    17    1
29    17    18    1
30    18    20    1
31    18    19    1
32    18    30    1
33    19    20    1
34    19    31    1
35    19    32    1
36    20    33    1
37    20    34    1
@<TRIPOS>SUBSTRUCTURE
1   LIG    1    
 
########## Number      : 653
########## Name        : ZINC00004785
########## Description : AM1BCC_CHARGES =   0.0000 ORIGINAL_CHARGES =  -0.0000

@<TRIPOS>MOLECULE
ZINC00004785
30    32    1     0     0    
SMALL
USER_CHARGES
****
****
@<TRIPOS>ATOM
1     C1       5.5696   -7.6616    0.7635 C.ar    1  LIG  -0.1354  -0.1500 
2     C2       5.6007   -7.2829    2.0982 C.ar    1  LIG  -0.1155  -0.1500 
3     C3       5.0919   -6.0409    2.4802 C.ar    1  LIG  -0.1196  -0.1500 
4     C4       4.5338   -5.1544    1.5374 C.ar    1  LIG   0.0813   0.1170 
5     C5       4.4985   -5.5479    0.1852 C.ar    1  LIG  -0.0538   0.0284 
6     C6       5.0288   -6.7977   -0.1866 C.ar    1  LIG  -0.1134  -0.1500 
7     C7       4.0428   -4.6766   -0.9021 C.2     1  LIG  -0.0935  -0.1784 
8     C8       3.0082   -3.8332   -0.8315 C.2     1  LIG  -0.1262  -0.1784 
9     C9       2.1579   -3.6471    0.3460 C.ar    1  LIG  -0.0385   0.0284 
10    C10      0.7970   -3.3756    0.1132 C.ar    1  LIG  -0.1152  -0.1500 
11    C11     -0.0772   -3.1206    1.1687 C.ar    1  LIG  -0.1327  -0.1500 
12    C12      0.3982   -3.1236    2.4729 C.ar    1  LIG  -0.1203  -0.1500 
13    C13      1.7479   -3.3752    2.7181 C.ar    1  LIG  -0.1453  -0.1500 
14    C14      2.6496   -3.6299    1.6638 C.ar    1  LIG   0.0503   0.1170 
15    N1       4.0263   -3.8857    1.9881 N.am    1  LIG  -0.3136  -0.2940 
16    C15      4.7636   -3.1107    2.9126 C.2     1  LIG   0.7656   0.6900 
17    O1       5.8372   -3.4402    3.4231 O.2     1  LIG  -0.6259  -0.5700 
18    N2       4.2590   -1.8491    3.1652 N.am    1  LIG  -0.6445  -0.8000 
19    H1       4.7466   -1.2301    3.8031 H       1  LIG   0.3148   0.3700 
20    H2       3.4681   -1.4578    2.6685 H       1  LIG   0.3024   0.3700 
21    H3       5.9690   -8.6246    0.4594 H       1  LIG   0.1341   0.1500 
22    H4       6.0174   -7.9519    2.8455 H       1  LIG   0.1363   0.1500 
23    H5       5.1086   -5.7913    3.5388 H       1  LIG   0.1562   0.1500 
24    H6       5.0280   -7.1098   -1.2295 H       1  LIG   0.1332   0.1500 
25    H7       4.5802   -4.7592   -1.8441 H       1  LIG   0.1296   0.1500 
26    H8       2.7413   -3.2623   -1.7177 H       1  LIG   0.1287   0.1500 
27    H9       0.4023   -3.3624   -0.9013 H       1  LIG   0.1372   0.1500 
28    H10     -1.1261   -2.9208    0.9704 H       1  LIG   0.1367   0.1500 
29    H11     -0.2788   -2.9340    3.3008 H       1  LIG   0.1375   0.1500 
30    H12      2.0857   -3.3948    3.7524 H       1  LIG   0.1495   0.1500 
@<TRIPOS>BOND
1     1     6     ar
2     1     2     ar
3     1     21    1
4     2     3     ar
5     2     22    1
6     3     4     ar
7     3     23    1
8     4     15    1
9     4     5     ar
10    5     6     ar
11    5     7     1
12    6     24    1
13    7     8     2
14    7     25    1
15    8     9     1
16    8     26    1
17    9     14    ar
18    9     10    ar
19    10    11    ar
20    10    27    1
21    11    12    ar
22    11    28    1
23    12    13    ar
24    12    29    1
25    13    14    ar
26    13    30    1
27    14    15    1
28    15    16    am
29    16    17    2
30    16    18    am
31    18    19    1
32    18    20    1
@<TRIPOS>SUBSTRUCTURE
1   LIG    1    
 
########## Number      : 654
########## Name        : ZINC00004840
########## Description : AM1BCC_CHARGES =   0.0001 ORIGINAL_CHARGES =   0.0000

@<TRIPOS>MOLECULE
ZINC00004840
28    29    1     0     0    
SMALL
USER_CHARGES
****
****
@<TRIPOS>ATOM
1     C1       7.0716   -8.4377    0.6811 C.3     1  LIG  -0.1594   0.1800 
2     C2       5.7206   -8.7653    0.1811 C.2     1  LIG   0.3212  -0.0400 
3     C3       4.4671   -8.1901    0.2739 C.2     1  LIG  -0.4005  -0.0860 
4     C4       3.6416   -9.1204   -0.4058 C.2     1  LIG   0.3613   0.1388 
5     N1       4.3235  -10.1527   -0.9017 N.2     1  LIG  -0.3529  -0.4097 
6     O1       5.6360   -9.9254   -0.5310 O.3     1  LIG  -0.1126  -0.0191 
7     C5       4.0282   -6.9655    0.9314 C.2     1  LIG   0.7213   0.7160 
8     O2       2.8472   -6.8349    1.2368 O.2     1  LIG  -0.5707  -0.5700 
9     N2       5.0252   -6.0172    1.1161 N.am    1  LIG  -0.4726  -0.5470 
10    C6       4.9141   -4.7652    1.7687 C.ar    1  LIG   0.1040   0.1170 
11    C7       3.7603   -4.3069    2.4090 C.ar    1  LIG  -0.1636  -0.1500 
12    C8       3.7459   -3.0531    3.0320 C.ar    1  LIG  -0.0518  -0.1500 
13    C9       4.8795   -2.2341    3.0221 C.ar    1  LIG  -0.2020  -0.1435 
14    C10      6.0388   -2.6983    2.3953 C.ar    1  LIG  -0.0515  -0.1500 
15    C11      6.0544   -3.9498    1.7731 C.ar    1  LIG  -0.1960  -0.1500 
16    C12      4.8649   -0.9012    3.7127 C.3     1  LIG   0.6919   1.1635 
17    F1       5.2355   -0.9926    5.0195 F       1  LIG  -0.2380  -0.3400 
18    F2       5.7090    0.0063    3.1471 F       1  LIG  -0.2396  -0.3400 
19    F3       3.6381   -0.3090    3.7121 F       1  LIG  -0.2374  -0.3400 
20    H1       5.9390   -6.2050    0.7181 H       1  LIG   0.3184   0.3700 
21    H2       7.7161   -9.3228    0.6853 H       1  LIG   0.0860   0.0000 
22    H3       7.5423   -7.6818    0.0453 H       1  LIG   0.0689   0.0000 
23    H4       7.0279   -8.0578    1.7063 H       1  LIG   0.0746   0.0000 
24    H5       2.5730   -9.0794   -0.5630 H       1  LIG   0.0755   0.1500 
25    H6       2.8509   -4.8949    2.4568 H       1  LIG   0.1826   0.1500 
26    H7       2.8358   -2.7232    3.5287 H       1  LIG   0.1554   0.1500 
27    H8       6.9407   -2.0907    2.3851 H       1  LIG   0.1517   0.1500 
28    H9       6.9729   -4.2782    1.2914 H       1  LIG   0.1359   0.1500 
@<TRIPOS>BOND
1     1     2     1
2     1     21    1
3     1     22    1
4     1     23    1
5     2     6     1
6     2     3     2
7     3     4     1
8     3     7     1
9     4     5     2
10    4     24    1
11    5     6     1
12    7     8     2
13    7     9     am
14    9     10    1
15    9     20    1
16    10    15    ar
17    10    11    ar
18    11    12    ar
19    11    25    1
20    12    13    ar
21    12    26    1
22    13    14    ar
23    13    16    1
24    14    15    ar
25    14    27    1
26    15    28    1
27    16    17    1
28    16    18    1
29    16    19    1
@<TRIPOS>SUBSTRUCTURE
1   LIG    1    
 
########## Number      : 655
########## Name        : ZINC00004935
########## Description : AM1BCC_CHARGES =   0.0003 ORIGINAL_CHARGES =   0.0000

@<TRIPOS>MOLECULE
ZINC00004935
31    33    1     0     0    
SMALL
USER_CHARGES
****
****
@<TRIPOS>ATOM
1     C1       2.8895  -10.5180    0.5647 C.ar    1  LIG  -0.1182  -0.1500 
2     C2       3.4962   -9.2645    0.6057 C.ar    1  LIG  -0.1321  -0.1500 
3     C3       2.9593   -8.2022   -0.1244 C.ar    1  LIG  -0.1126  -0.1500 
4     C4       1.8067   -8.3811   -0.9034 C.ar    1  LIG  -0.0966  -0.1435 
5     C5       1.2076   -9.6502   -0.9374 C.ar    1  LIG  -0.0985  -0.1500 
6     C6       1.7458  -10.7111   -0.2068 C.ar    1  LIG  -0.1328  -0.1500 
7     C7       1.2432   -7.2220   -1.6961 C.3     1  LIG   0.1972   0.4235 
8     C8       1.4655   -7.4265   -3.1949 C.3     1  LIG  -0.2112   0.0610 
9     C9       0.8979   -6.2441   -3.9374 C.2     1  LIG   0.5940   0.4228 
10    O1       1.3701   -5.8753   -5.0061 O.2     1  LIG  -0.5118  -0.5700 
11    C10     -0.2992   -5.6059   -3.3311 C.ar    1  LIG  -0.3057   0.0862 
12    C11     -0.9916   -4.5576   -3.9503 C.ar    1  LIG   0.2450   0.0825 
13    C12     -2.1465   -4.0317   -3.3653 C.ar    1  LIG  -0.3018  -0.1500 
14    C13     -2.6114   -4.5625   -2.1652 C.ar    1  LIG   0.2210   0.0825 
15    C14     -1.9343   -5.6025   -1.5343 C.ar    1  LIG  -0.2971  -0.1500 
16    C15     -0.7680   -6.1113   -2.1102 C.ar    1  LIG   0.2343   0.0825 
17    O2      -0.1561   -7.1302   -1.4245 O.3     1  LIG  -0.3197  -0.3625 
18    O3      -3.7492   -4.0327   -1.6249 O.3     1  LIG  -0.4888  -0.5325 
19    O4      -0.5535   -4.0386   -5.1371 O.3     1  LIG  -0.4547  -0.5325 
20    H1      -3.9480   -4.5013   -0.7963 H       1  LIG   0.4287   0.4500 
21    H2      -1.1550   -3.3281   -5.4170 H       1  LIG   0.4238   0.4500 
22    H3       3.3081  -11.3436    1.1328 H       1  LIG   0.1340   0.1500 
23    H4       4.3890   -9.1132    1.2059 H       1  LIG   0.1351   0.1500 
24    H5       3.4502   -7.2330   -0.0801 H       1  LIG   0.1341   0.1500 
25    H6       0.3147   -9.8212   -1.5341 H       1  LIG   0.1420   0.1500 
26    H7       1.2720  -11.6880   -0.2405 H       1  LIG   0.1353   0.1500 
27    H8       1.7516   -6.2880   -1.3954 H       1  LIG   0.0638   0.0000 
28    H9       2.5364   -7.5028   -3.4146 H       1  LIG   0.0903   0.0000 
29    H10      0.9616   -8.3243   -3.5716 H       1  LIG   0.0869   0.0000 
30    H11     -2.6897   -3.2193   -3.8404 H       1  LIG   0.1584   0.1500 
31    H12     -2.2984   -6.0121   -0.5960 H       1  LIG   0.1580   0.1500 
@<TRIPOS>BOND
1     1     6     ar
2     1     2     ar
3     1     22    1
4     2     3     ar
5     2     23    1
6     3     4     ar
7     3     24    1
8     4     5     ar
9     4     7     1
10    5     6     ar
11    5     25    1
12    6     26    1
13    7     17    1
14    7     8     1
15    7     27    1
16    8     9     1
17    8     28    1
18    8     29    1
19    9     10    2
20    9     11    1
21    11    16    ar
22    11    12    ar
23    12    13    ar
24    12    19    1
25    13    14    ar
26    13    30    1
27    14    15    ar
28    14    18    1
29    15    16    ar
30    15    31    1
31    16    17    1
32    18    20    1
33    19    21    1
@<TRIPOS>SUBSTRUCTURE
1   LIG    1    
 
########## Number      : 656
########## Name        : ZINC00004960
########## Description : AM1BCC_CHARGES =   0.0001 ORIGINAL_CHARGES =   0.0000

@<TRIPOS>MOLECULE
ZINC00004960
34    35    1     0     0    
SMALL
USER_CHARGES
****
****
@<TRIPOS>ATOM
1     C1       4.5132  -10.7572    1.2174 C.3     1  LIG  -0.1027   0.0000 
2     C2       5.7678   -9.9156    1.0952 C.3     1  LIG   0.1407   0.2800 
3     O1       5.3733   -8.5559    0.8606 O.3     1  LIG  -0.4343  -0.4300 
4     C3       6.3916   -7.6624    0.7172 C.2     1  LIG   0.6475   0.6590 
5     O2       7.5858   -7.9257    0.7966 O.2     1  LIG  -0.5234  -0.5700 
6     C4       5.8735   -6.2582    0.5074 C.3     1  LIG  -0.2386   0.1220 
7     C5       4.6060   -6.2358   -0.2869 C.2     1  LIG   0.5188   0.5090 
8     C6       3.4726   -5.7365    0.5653 C.2     1  LIG   0.6102   0.6300 
9     O3       2.3348   -5.6491    0.1549 O.2     1  LIG  -0.5721  -0.5700 
10    N1       4.0245   -5.4490    1.7922 N.am    1  LIG  -0.4712  -0.6602 
11    C7       5.4654   -5.6397    1.8500 C.3     1  LIG   0.1021   0.3001 
12    C8       3.2765   -4.9166    2.9221 C.3     1  LIG   0.1517   0.4436 
13    C9       3.4758   -3.4342    3.0984 C.ar    1  LIG  -0.1295  -0.1435 
14    C10      4.3298   -2.9437    4.0955 C.ar    1  LIG  -0.1194  -0.1500 
15    C11      4.5258   -1.5699    4.2458 C.ar    1  LIG  -0.1332  -0.1500 
16    C12      3.8734   -0.6745    3.4003 C.ar    1  LIG  -0.1198  -0.1500 
17    C13      3.0251   -1.1514    2.4028 C.ar    1  LIG  -0.1302  -0.1500 
18    C14      2.8277   -2.5246    2.2507 C.ar    1  LIG  -0.1094  -0.1500 
19    O4       4.4430   -6.5834   -1.4393 O.2     1  LIG  -0.4335  -0.5700 
20    H1       6.6649   -5.6471    0.0499 H       1  LIG   0.1255   0.0000 
21    H2       4.7630  -11.8064    1.3980 H       1  LIG   0.0505   0.0000 
22    H3       3.8856  -10.3962    2.0389 H       1  LIG   0.0503   0.0000 
23    H4       3.9126  -10.6883    0.3044 H       1  LIG   0.0553   0.0000 
24    H5       6.3482   -9.9732    2.0225 H       1  LIG   0.0503   0.0000 
25    H6       6.3761  -10.2706    0.2562 H       1  LIG   0.0588   0.0000 
26    H7       5.7110   -6.2668    2.7135 H       1  LIG   0.0667   0.0000 
27    H8       5.9361   -4.6591    1.9790 H       1  LIG   0.0625   0.0000 
28    H9       2.2089   -5.1160    2.7688 H       1  LIG   0.0868   0.0000 
29    H10      3.5771   -5.4681    3.8204 H       1  LIG   0.0562   0.0000 
30    H11      4.8500   -3.6286    4.7606 H       1  LIG   0.1294   0.1500 
31    H12      5.1888   -1.1984    5.0220 H       1  LIG   0.1339   0.1500 
32    H13      4.0269    0.3944    3.5179 H       1  LIG   0.1343   0.1500 
33    H14      2.5177   -0.4542    1.7422 H       1  LIG   0.1369   0.1500 
34    H15      2.1648   -2.8818    1.4663 H       1  LIG   0.1490   0.1500 
@<TRIPOS>BOND
1     1     2     1
2     1     21    1
3     1     22    1
4     1     23    1
5     2     3     1
6     2     24    1
7     2     25    1
8     3     4     1
9     4     5     2
10    4     6     1
11    6     11    1
12    6     20    1
13    6     7     1
14    7     8     1
15    7     19    2
16    8     9     2
17    8     10    am
18    10    11    1
19    10    12    1
20    11    26    1
21    11    27    1
22    12    13    1
23    12    28    1
24    12    29    1
25    13    18    ar
26    13    14    ar
27    14    15    ar
28    14    30    1
29    15    16    ar
30    15    31    1
31    16    17    ar
32    16    32    1
33    17    18    ar
34    17    33    1
35    18    34    1
@<TRIPOS>SUBSTRUCTURE
1   LIG    1    
 
########## Number      : 657
########## Name        : ZINC00005003
########## Description : AM1BCC_CHARGES =   2.0000 ORIGINAL_CHARGES =   2.0000

@<TRIPOS>MOLECULE
ZINC00005003
24    24    1     0     0    
SMALL
USER_CHARGES
****
****
@<TRIPOS>ATOM
1     C1       5.6865   -8.9553   -0.9708 C.3     1  LIG  -0.1135   0.0000 
2     C2       5.4093   -9.8967    0.1983 C.3     1  LIG  -0.0979   0.0000 
3     C3       4.8260   -9.1625    1.4045 C.3     1  LIG  -0.1130   0.0000 
4     C4       3.5802   -8.3567    1.0110 C.3     1  LIG   0.0893   0.5030 
5     C5       3.8456   -7.3768   -0.1514 C.3     1  LIG   0.1042   0.5030 
6     C6       4.4531   -8.1317   -1.3460 C.3     1  LIG  -0.1103   0.0000 
7     H1       5.0375   -5.7122   -0.5457 H       1  LIG   0.4966   0.4500 
8     H2       4.3804   -5.6680    0.9580 H       1  LIG   0.4552   0.4500 
9     H3       2.2781   -7.0310    1.9834 H       1  LIG   0.4747   0.4500 
10    H4       2.7752   -8.2873    2.9265 H       1  LIG   0.4976   0.4500 
11    H5       6.0117   -9.5394   -1.8396 H       1  LIG   0.1315   0.0000 
12    H6       6.5181   -8.2883   -0.7149 H       1  LIG   0.0514   0.0000 
13    H7       4.7074  -10.6758   -0.1244 H       1  LIG   0.0911   0.0000 
14    H8       6.3352  -10.4056    0.4892 H       1  LIG   0.1214   0.0000 
15    H9       4.5663   -9.8955    2.1783 H       1  LIG   0.1113   0.0000 
16    H10      5.5927   -8.5104    1.8403 H       1  LIG   0.0593   0.0000 
17    H11      2.8116   -9.0812    0.6888 H       1  LIG   0.1633   0.0000 
18    H12      2.9026   -6.9148   -0.4879 H       1  LIG   0.1303   0.0000 
19    H13      4.7123   -7.4301   -2.1482 H       1  LIG   0.1083   0.0000 
20    H14      3.6924   -8.8073   -1.7584 H       1  LIG   0.1200   0.0000 
21    N1       4.7889   -6.3037    0.2606 N.4     1  LIG  -0.8517  -0.8530 
22    H15      5.6753   -6.6605    0.6421 H       1  LIG   0.4778   0.4500 
23    N2       3.0896   -7.6257    2.2019 N.4     1  LIG  -0.8534  -0.8530 
24    H16      3.8071   -7.0348    2.6424 H       1  LIG   0.4565   0.4500 
@<TRIPOS>BOND
1     1     6     1
2     1     2     1
3     1     11    1
4     1     12    1
5     2     3     1
6     2     13    1
7     2     14    1
8     3     4     1
9     3     15    1
10    3     16    1
11    4     5     1
12    4     17    1
13    4     23    1
14    5     6     1
15    5     18    1
16    5     21    1
17    6     19    1
18    6     20    1
19    7     21    1
20    8     21    1
21    9     23    1
22    10    23    1
23    21    22    1
24    23    24    1
@<TRIPOS>SUBSTRUCTURE
1   LIG    1    
 
########## Number      : 658
########## Name        : ZINC00005064
########## Description : AM1BCC_CHARGES =   1.0000 ORIGINAL_CHARGES =   1.0000

@<TRIPOS>MOLECULE
ZINC00005064
45    47    1     0     0    
SMALL
USER_CHARGES
****
****
@<TRIPOS>ATOM
1     C1       8.7912    1.0506    1.8893 C.3     1  LIG  -0.1332   0.0000 
2     C2       7.3111    1.0992    2.2775 C.3     1  LIG   0.1371   0.5030 
3     C3       7.0491    0.0650    3.3734 C.3     1  LIG  -0.1316   0.0000 
4     C4       4.9534    0.7629    1.3446 C.3     1  LIG   0.1090   0.5030 
5     C5       4.1299    0.3331    0.1124 C.3     1  LIG  -0.0912   0.0000 
6     C6       4.9438    0.4217   -1.1796 C.3     1  LIG  -0.0942   0.0000 
7     C7       5.6332    1.7812   -1.1677 C.3     1  LIG  -0.0911   0.0000 
8     C8       6.7458    1.7636   -0.1144 C.3     1  LIG   0.1128   0.5030 
9     C9       4.6405    2.9349   -0.8769 C.3     1  LIG   0.0989   0.3001 
10    N1       3.2337    2.5488   -0.6579 N.am    1  LIG  -0.5009  -0.6602 
11    C10      2.9268    1.2576   -0.0317 C.3     1  LIG   0.0902   0.3001 
12    C11      2.1443    3.3951   -0.9187 C.2     1  LIG   0.6748   0.5438 
13    O1       0.9627    3.0843   -0.7745 O.2     1  LIG  -0.5517  -0.5700 
14    C12      2.4136    4.7602   -1.3957 C.ar    1  LIG  -0.1514   0.0862 
15    C13      2.9540    5.7108   -0.5258 C.ar    1  LIG  -0.1059  -0.1500 
16    C14      3.1771    7.0079   -0.9857 C.ar    1  LIG  -0.1310  -0.1500 
17    C15      2.8506    7.3505   -2.2994 C.ar    1  LIG  -0.0997  -0.1500 
18    C16      2.2942    6.3989   -3.1566 C.ar    1  LIG  -0.1258  -0.1500 
19    C17      2.0673    5.0994   -2.7055 C.ar    1  LIG  -0.0883  -0.1500 
20    H1       9.0609    1.8647    1.2098 H       1  LIG   0.0630   0.0000 
21    H2       9.4263    1.1607    2.7754 H       1  LIG   0.0972   0.0000 
22    H3       9.0478    0.1006    1.4080 H       1  LIG   0.0666   0.0000 
23    H4       7.0426    2.1016    2.6304 H       1  LIG   0.1037   0.0000 
24    H5       6.0628    0.1987    3.8276 H       1  LIG   0.0673   0.0000 
25    H6       7.1201   -0.9576    2.9875 H       1  LIG   0.0652   0.0000 
26    H7       7.7774    0.1689    4.1856 H       1  LIG   0.0969   0.0000 
27    H8       4.7929    0.0175    2.1281 H       1  LIG   0.0980   0.0000 
28    H9       4.6773    1.7454    1.7434 H       1  LIG   0.1094   0.0000 
29    H10      3.8102   -0.7166    0.2166 H       1  LIG   0.0982   0.0000 
30    H11      5.6753   -0.3927   -1.2481 H       1  LIG   0.0542   0.0000 
31    H12      4.2911    0.3244   -2.0564 H       1  LIG   0.1041   0.0000 
32    H13      6.0551    1.9361   -2.1754 H       1  LIG   0.1009   0.0000 
33    H14      6.9508    2.7561    0.3008 H       1  LIG   0.1038   0.0000 
34    H15      7.6640    1.3784   -0.5717 H       1  LIG   0.0944   0.0000 
35    H16      4.9370    3.5131    0.0059 H       1  LIG   0.0396   0.0000 
36    H17      4.6864    3.6317   -1.7211 H       1  LIG   0.0776   0.0000 
37    H18      2.1709    0.7719   -0.6626 H       1  LIG   0.0876   0.0000 
38    H19      2.4428    1.4475    0.9343 H       1  LIG   0.0640   0.0000 
39    H20      3.1979    5.4540    0.5011 H       1  LIG   0.1333   0.1500 
40    H21      3.6007    7.7550   -0.3204 H       1  LIG   0.1447   0.1500 
41    H22      3.0241    8.3628   -2.6540 H       1  LIG   0.1484   0.1500 
42    H23      2.0347    6.6731   -4.1752 H       1  LIG   0.1502   0.1500 
43    H24      1.6285    4.3646   -3.3748 H       1  LIG   0.1501   0.1500 
44    N2       6.4378    0.8110    1.0429 N.4     1  LIG  -0.6843  -0.9590 
45    H25      6.6979   -0.1337    0.7272 H       1  LIG   0.4391   0.4500 
@<TRIPOS>BOND
1     1     2     1
2     1     20    1
3     1     21    1
4     1     22    1
5     2     3     1
6     2     23    1
7     2     44    1
8     3     24    1
9     3     25    1
10    3     26    1
11    4     5     1
12    4     27    1
13    4     28    1
14    4     44    1
15    5     11    1
16    5     6     1
17    5     29    1
18    6     7     1
19    6     30    1
20    6     31    1
21    7     8     1
22    7     9     1
23    7     32    1
24    8     33    1
25    8     34    1
26    8     44    1
27    9     10    1
28    9     35    1
29    9     36    1
30    10    11    1
31    10    12    am
32    11    37    1
33    11    38    1
34    12    13    2
35    12    14    1
36    14    19    ar
37    14    15    ar
38    15    16    ar
39    15    39    1
40    16    17    ar
41    16    40    1
42    17    18    ar
43    17    41    1
44    18    19    ar
45    18    42    1
46    19    43    1
47    44    45    1
@<TRIPOS>SUBSTRUCTURE
1   LIG    1    
 
########## Number      : 659
########## Name        : ZINC00005088
########## Description : AM1BCC_CHARGES =   0.0001 ORIGINAL_CHARGES =  -0.0000

@<TRIPOS>MOLECULE
ZINC00005088
32    34    1     0     0    
SMALL
USER_CHARGES
****
****
@<TRIPOS>ATOM
1     C1       6.1256   -9.9933   -1.0011 C.ar    1  LIG  -0.1251  -0.1500 
2     C2       5.1364   -9.0854   -1.3726 C.ar    1  LIG  -0.1248  -0.1500 
3     C3       4.7484   -8.0737   -0.4919 C.ar    1  LIG  -0.1043  -0.1500 
4     C4       5.3544   -7.9571    0.7653 C.ar    1  LIG  -0.0152   0.1015 
5     C5       6.3380   -8.8817    1.1359 C.ar    1  LIG  -0.1251  -0.1500 
6     C6       6.7240   -9.8930    0.2532 C.ar    1  LIG  -0.1228  -0.1500 
7     S1       4.8094   -6.6571    1.8642 S.3     1  LIG  -0.1880  -0.3315 
8     C7       6.4131   -5.9447    2.3637 C.3     1  LIG  -0.0680   0.3735 
9     C8       6.2247   -4.6673    3.1268 C.ar    1  LIG   0.2560   0.1665 
10    C9       5.9613   -4.6574    4.4757 C.ar    1  LIG   0.3531   0.1600 
11    N1       5.7778   -3.5117    5.1619 N.ar    1  LIG  -0.6267  -0.6200 
12    C10      5.8502   -2.3500    4.5040 C.ar    1  LIG   0.6312   0.6200 
13    C11      6.1133   -2.3518    3.1351 C.ar    1  LIG   0.0299   0.3100 
14    N2       6.2997   -3.5049    2.4496 N.ar    1  LIG  -0.5824  -0.6200 
15    C12      6.1771   -1.1042    2.5259 C.ar    1  LIG   0.7181   0.4100 
16    N3       5.9759    0.0452    3.2040 N.ar    1  LIG  -0.8482  -0.6200 
17    C13      5.7301   -0.0457    4.5198 C.ar    1  LIG   0.9433   0.7200 
18    N4       5.6655   -1.2147    5.1811 N.ar    1  LIG  -0.7733  -0.6200 
19    N5       5.5315    1.1209    5.2317 N.pl3   1  LIG  -0.9399  -0.9000 
20    N6       6.3935   -1.0171    1.1518 N.pl3   1  LIG  -0.9534  -0.9000 
21    H1       5.5741    2.0094    4.7543 H       1  LIG   0.4399   0.4000 
22    H2       5.3437    1.0741    6.2225 H       1  LIG   0.4450   0.4000 
23    H3       6.8762   -1.7762    0.6876 H       1  LIG   0.4604   0.4000 
24    H4       6.4313   -0.0932    0.7417 H       1  LIG   0.4465   0.4000 
25    H5       6.4261  -10.7809   -1.6859 H       1  LIG   0.1337   0.1500 
26    H6       4.6647   -9.1653   -2.3480 H       1  LIG   0.1346   0.1500 
27    H7       3.9721   -7.3780   -0.8026 H       1  LIG   0.1443   0.1500 
28    H8       6.8094   -8.8391    2.1140 H       1  LIG   0.1306   0.1500 
29    H9       7.4891  -10.6060    0.5474 H       1  LIG   0.1334   0.1500 
30    H10      6.9699   -6.6593    2.9789 H       1  LIG   0.0692   0.0000 
31    H11      7.0108   -5.7437    1.4673 H       1  LIG   0.0901   0.0000 
32    H12      5.8858   -5.5676    5.0594 H       1  LIG   0.0380   0.1500 
@<TRIPOS>BOND
1     1     6     ar
2     1     2     ar
3     1     25    1
4     2     3     ar
5     2     26    1
6     3     4     ar
7     3     27    1
8     4     5     ar
9     4     7     1
10    5     6     ar
11    5     28    1
12    6     29    1
13    7     8     1
14    8     9     1
15    8     30    1
16    8     31    1
17    9     14    ar
18    9     10    ar
19    10    11    ar
20    10    32    1
21    11    12    ar
22    12    18    ar
23    12    13    ar
24    13    14    ar
25    13    15    ar
26    15    16    ar
27    15    20    1
28    16    17    ar
29    17    18    ar
30    17    19    1
31    19    21    1
32    19    22    1
33    20    23    1
34    20    24    1
@<TRIPOS>SUBSTRUCTURE
1   LIG    1    
 
########## Number      : 660
########## Name        : ZINC00005142
########## Description : AM1BCC_CHARGES =   0.0001 ORIGINAL_CHARGES =  -0.0000

@<TRIPOS>MOLECULE
ZINC00005142
27    27    1     0     0    
SMALL
USER_CHARGES
****
****
@<TRIPOS>ATOM
1     C1       1.0464   -3.4052    0.4623 C.3     1  LIG  -0.2024   0.0610 
2     C2       2.3642   -3.5340   -0.2589 C.2     1  LIG   0.5810   0.4946 
3     O1       2.6902   -4.5991   -0.7816 O.2     1  LIG  -0.5322  -0.5700 
4     C3       3.2550   -2.3276   -0.3018 C.2     1  LIG  -0.2766   0.0288 
5     C4       4.3325   -2.3718   -1.1075 C.2     1  LIG  -0.0046  -0.1784 
6     C5       5.3656   -1.3354   -1.2455 C.ar    1  LIG  -0.0944   0.0284 
7     C6       5.5956   -0.7609   -2.5015 C.ar    1  LIG  -0.0919  -0.1500 
8     C7       6.5809    0.2149   -2.6598 C.ar    1  LIG  -0.1349  -0.1500 
9     C8       7.3504    0.6177   -1.5685 C.ar    1  LIG  -0.0825  -0.1500 
10    C9       7.1383    0.0394   -0.3147 C.ar    1  LIG  -0.0142   0.0730 
11    C10      6.1514   -0.9392   -0.1536 C.ar    1  LIG  -0.0747  -0.1500 
12    C11      7.9322    0.4460    0.8043 C.1     1  LIG   0.2281   0.4841 
13    N1       8.5760    0.7760    1.7117 N.1     1  LIG  -0.3497  -0.5571 
14    C12      2.9717   -1.1318    0.5418 C.2     1  LIG   0.5781   0.4946 
15    O2       2.9454   -1.2346    1.7668 O.2     1  LIG  -0.5212  -0.5700 
16    C13      2.6802    0.1760   -0.1479 C.3     1  LIG  -0.1983   0.0610 
17    H1       0.3868   -4.2228    0.1557 H       1  LIG   0.0723   0.0000 
18    H2       1.2071   -3.4643    1.5414 H       1  LIG   0.0880   0.0000 
19    H3       0.5525   -2.4662    0.1988 H       1  LIG   0.0601   0.0000 
20    H4       4.5112   -3.2423   -1.7368 H       1  LIG   0.1637   0.1500 
21    H5       5.0073   -1.0626   -3.3653 H       1  LIG   0.1441   0.1500 
22    H6       6.7495    0.6608   -3.6362 H       1  LIG   0.1454   0.1500 
23    H7       8.1141    1.3791   -1.7093 H       1  LIG   0.1498   0.1500 
24    H8       5.9963   -1.3953    0.8230 H       1  LIG   0.1602   0.1500 
25    H9       1.7434    0.5818    0.2445 H       1  LIG   0.0723   0.0000 
26    H10      3.4958    0.8787    0.0386 H       1  LIG   0.0766   0.0000 
27    H11      2.5596    0.0387   -1.2259 H       1  LIG   0.0580   0.0000 
@<TRIPOS>BOND
1     1     2     1
2     1     17    1
3     1     18    1
4     1     19    1
5     2     3     2
6     2     4     1
7     4     5     2
8     4     14    1
9     5     6     1
10    5     20    1
11    6     11    ar
12    6     7     ar
13    7     8     ar
14    7     21    1
15    8     9     ar
16    8     22    1
17    9     10    ar
18    9     23    1
19    10    11    ar
20    10    12    1
21    11    24    1
22    12    13    3
23    14    15    2
24    14    16    1
25    16    25    1
26    16    26    1
27    16    27    1
@<TRIPOS>SUBSTRUCTURE
1   LIG    1    
 
########## Number      : 661
########## Name        : ZINC00005147
########## Description : AM1BCC_CHARGES =   1.9998 ORIGINAL_CHARGES =   2.0000

@<TRIPOS>MOLECULE
ZINC00005147
44    46    1     0     0    
SMALL
USER_CHARGES
****
****
@<TRIPOS>ATOM
1     C1       5.7480   -9.8494    0.5574 C.3     1  LIG  -0.0901   0.0000 
2     C2       5.7081  -10.5229    1.9152 C.3     1  LIG  -0.0900   0.0000 
3     C3       6.2945   -9.6003    2.9678 C.3     1  LIG  -0.1087   0.0000 
4     C4       5.5851   -8.2217    3.0728 C.3     1  LIG   0.1332   0.5030 
5     C5       5.4291   -7.5439    1.6649 C.3     1  LIG   0.1314   0.5030 
6     C6       4.9429   -8.5632    0.5955 C.3     1  LIG  -0.1080   0.0000 
7     C7       4.8781   -5.2596    0.7339 C.3     1  LIG   0.0043   0.5640 
8     C8       3.7785   -4.2750    0.4229 C.2     1  LIG   0.6852   0.5690 
9     O1       3.8264   -3.5523   -0.5710 O.2     1  LIG  -0.4503  -0.5700 
10    N1       2.7521   -4.2009    1.3503 N.am    1  LIG  -0.5835  -0.4900 
11    C9       2.6362   -4.8937    2.5445 C.2     1  LIG   0.6902   0.5690 
12    O2       1.7056   -4.7170    3.3286 O.2     1  LIG  -0.4681  -0.5700 
13    C10      3.7736   -5.8337    2.8673 C.3     1  LIG  -0.0127   0.5640 
14    C11      5.7288   -7.0940    5.3683 C.3     1  LIG  -0.0048   0.5640 
15    C12      6.6769   -6.5927    6.4274 C.2     1  LIG   0.6855   0.5690 
16    O3       6.4125   -6.6925    7.6244 O.2     1  LIG  -0.4528  -0.5700 
17    N2       7.8225   -5.9641    5.9669 N.am    1  LIG  -0.5853  -0.4900 
18    C13      8.2076   -5.7343    4.6564 C.2     1  LIG   0.6888   0.5690 
19    O4       9.2195   -5.0965    4.3683 O.2     1  LIG  -0.4653  -0.5700 
20    C14      7.2819   -6.2584    3.5856 C.3     1  LIG  -0.0050   0.5640 
21    H1       2.0079   -3.5412    1.1417 H       1  LIG   0.4023   0.3700 
22    H2       8.4488   -5.6055    6.6824 H       1  LIG   0.4016   0.3700 
23    H3       5.3323  -10.5227   -0.2007 H       1  LIG   0.1215   0.0000 
24    H4       6.7836   -9.6363    0.2670 H       1  LIG   0.0774   0.0000 
25    H5       4.6772  -10.7869    2.1798 H       1  LIG   0.0787   0.0000 
26    H6       6.2813  -11.4562    1.8817 H       1  LIG   0.1215   0.0000 
27    H7       6.2542  -10.1041    3.9420 H       1  LIG   0.0969   0.0000 
28    H8       7.3582   -9.4490    2.7372 H       1  LIG   0.0817   0.0000 
29    H9       4.5868   -8.4191    3.4973 H       1  LIG   0.1203   0.0000 
30    H10      6.4109   -7.1803    1.3212 H       1  LIG   0.1186   0.0000 
31    H11      4.9739   -8.0982   -0.3974 H       1  LIG   0.0940   0.0000 
32    H12      3.8926   -8.8241    0.7852 H       1  LIG   0.0833   0.0000 
33    H13      5.7013   -4.7519    1.2440 H       1  LIG   0.1276   0.0000 
34    H14      5.2256   -5.7050   -0.2033 H       1  LIG   0.1578   0.0000 
35    H15      3.3692   -6.6661    3.4462 H       1  LIG   0.1350   0.0000 
36    H16      4.5280   -5.2710    3.4150 H       1  LIG   0.1080   0.0000 
37    H17      4.9643   -6.3398    5.1888 H       1  LIG   0.1214   0.0000 
38    H18      5.2723   -8.0263    5.7157 H       1  LIG   0.1587   0.0000 
39    H19      7.8980   -6.6351    2.7643 H       1  LIG   0.1477   0.0000 
40    H20      6.6325   -5.4498    3.2552 H       1  LIG   0.0998   0.0000 
41    N3       4.3986   -6.3939    1.6237 N.4     1  LIG  -0.7021  -0.9590 
42    H21      3.5891   -6.7844    1.1211 H       1  LIG   0.4764   0.4500 
43    N4       6.4383   -7.4053    4.0709 N.4     1  LIG  -0.7021  -0.9590 
44    H22      7.1557   -8.0745    4.3839 H       1  LIG   0.4798   0.4500 
@<TRIPOS>BOND
1     1     6     1
2     1     2     1
3     1     23    1
4     1     24    1
5     2     3     1
6     2     25    1
7     2     26    1
8     3     4     1
9     3     27    1
10    3     28    1
11    4     5     1
12    4     29    1
13    4     43    1
14    5     6     1
15    5     30    1
16    5     41    1
17    6     31    1
18    6     32    1
19    7     8     1
20    7     33    1
21    7     34    1
22    7     41    1
23    8     9     2
24    8     10    am
25    10    11    am
26    10    21    1
27    11    12    2
28    11    13    1
29    13    35    1
30    13    36    1
31    13    41    1
32    14    15    1
33    14    37    1
34    14    38    1
35    14    43    1
36    15    16    2
37    15    17    am
38    17    18    am
39    17    22    1
40    18    19    2
41    18    20    1
42    20    39    1
43    20    40    1
44    20    43    1
45    41    42    1
46    43    44    1
@<TRIPOS>SUBSTRUCTURE
1   LIG    1    
 
########## Number      : 662
########## Name        : ZINC00005155
########## Description : AM1BCC_CHARGES =  -0.0002 ORIGINAL_CHARGES =   0.0000

@<TRIPOS>MOLECULE
ZINC00005155
28    30    1     0     0    
SMALL
USER_CHARGES
****
****
@<TRIPOS>ATOM
1     C1       5.9330   -7.5662    2.2044 C.2     1  LIG  -0.2080  -0.1500 
2     C2       5.4466   -6.2502    2.0084 C.2     1  LIG  -0.1492  -0.1500 
3     C3       4.1471   -6.3299    1.5285 C.2     1  LIG  -0.2034  -0.2366 
4     N1       3.8699   -7.6782    1.4076 N.pl3   1  LIG  -0.1408   0.0332 
5     C4       4.9334   -8.4296    1.8265 C.2     1  LIG  -0.1403  -0.3016 
6     C5       3.2018   -5.2868    1.1499 C.2     1  LIG   0.5813   0.4488 
7     N2       2.2574   -5.6440    0.3472 N.2     1  LIG  -0.6208  -0.6960 
8     C6       1.3015   -4.6515   -0.0999 C.3     1  LIG   0.0506   0.3070 
9     C7       1.9983   -3.7242   -1.0651 C.2     1  LIG   0.6859   0.5690 
10    O1       1.7296   -3.7307   -2.2672 O.2     1  LIG  -0.6091  -0.5700 
11    N3       2.8803   -2.8180   -0.5193 N.am    1  LIG  -0.4724  -0.5470 
12    C8       3.3354   -2.7794    0.8139 C.ar    1  LIG   0.0880   0.1170 
13    C9       3.3986   -3.8974    1.6625 C.ar    1  LIG  -0.2015   0.0862 
14    C10      3.7499   -3.7254    3.0113 C.ar    1  LIG  -0.0723  -0.1500 
15    C11      4.1119   -2.4647    3.4850 C.ar    1  LIG  -0.0141   0.1770 
16    C12      4.1336   -1.3692    2.6278 C.ar    1  LIG  -0.0835  -0.1500 
17    C13      3.7509   -1.5291    1.2958 C.ar    1  LIG  -0.1711  -0.1500 
18    Cl1      4.5602   -2.2679    5.1357 Cl      1  LIG  -0.0813  -0.1770 
19    H1       2.9956   -8.0490    1.0612 H       1  LIG   0.3119   0.2700 
20    H2       3.1649   -2.0556   -1.1278 H       1  LIG   0.3264   0.3700 
21    H3       6.9088   -7.8510    2.5725 H       1  LIG   0.1565   0.1500 
22    H4       6.0006   -5.3400    2.1941 H       1  LIG   0.1584   0.1500 
23    H5       4.8872   -9.5095    1.8107 H       1  LIG   0.1692   0.1500 
24    H6       0.4877   -5.1560   -0.6321 H       1  LIG   0.1046   0.0000 
25    H7       0.8396   -4.0962    0.7243 H       1  LIG   0.0685   0.0000 
26    H8       3.7599   -4.5744    3.6915 H       1  LIG   0.1676   0.1500 
27    H9       4.4293   -0.3861    2.9844 H       1  LIG   0.1535   0.1500 
28    H10      3.7426   -0.6554    0.6473 H       1  LIG   0.1452   0.1500 
@<TRIPOS>BOND
1     1     5     2
2     1     2     1
3     1     21    1
4     2     3     2
5     2     22    1
6     3     4     1
7     3     6     1
8     4     5     1
9     4     19    1
10    5     23    1
11    6     13    1
12    6     7     2
13    7     8     1
14    8     9     1
15    8     24    1
16    8     25    1
17    9     10    2
18    9     11    am
19    11    12    1
20    11    20    1
21    12    17    ar
22    12    13    ar
23    13    14    ar
24    14    15    ar
25    14    26    1
26    15    16    ar
27    15    18    1
28    16    17    ar
29    16    27    1
30    17    28    1
@<TRIPOS>SUBSTRUCTURE
1   LIG    1    
 
########## Number      : 663
########## Name        : ZINC00005224
########## Description : AM1BCC_CHARGES =   0.9998 ORIGINAL_CHARGES =   1.0000

@<TRIPOS>MOLECULE
ZINC00005224
36    37    1     0     0    
SMALL
USER_CHARGES
****
****
@<TRIPOS>ATOM
1     C1       5.7402  -10.2084   -0.4901 C.3     1  LIG   0.0834   0.5030 
2     C2       3.3475   -9.9474   -1.0889 C.3     1  LIG   0.0810   0.5030 
3     C3       4.5626   -8.1038    0.1422 C.3     1  LIG   0.1070   0.5030 
4     C4       3.7536   -6.9362   -0.4170 C.3     1  LIG  -0.2192   0.0610 
5     C5       3.7812   -5.7460    0.5285 C.2     1  LIG   0.5974   0.4228 
6     O1       4.3334   -5.8025    1.6250 O.2     1  LIG  -0.5334  -0.5700 
7     C6       3.1114   -4.4782    0.1108 C.ar    1  LIG  -0.2007   0.0862 
8     C7       2.4000   -4.3810   -1.1015 C.ar    1  LIG  -0.0898  -0.1500 
9     C8       1.7844   -3.1819   -1.4765 C.ar    1  LIG  -0.1318  -0.1500 
10    C9       1.8777   -2.0963   -0.6247 C.ar    1  LIG  -0.0259  -0.1435 
11    C10      2.5807   -2.1862    0.5798 C.ar    1  LIG  -0.0904  -0.1435 
12    C11      3.2061   -3.3635    0.9586 C.ar    1  LIG  -0.0494  -0.1500 
13    C12      2.5789   -0.8729    1.2972 C.3     1  LIG  -0.0409   0.1435 
14    C13      1.4127   -0.1556    0.6012 C.3     1  LIG  -0.0816   0.0000 
15    C14      1.3392   -0.7154   -0.8272 C.3     1  LIG  -0.0499   0.1435 
16    H1       5.8043  -10.9652   -1.2764 H       1  LIG   0.1042   0.0000 
17    H2       6.6837   -9.6595   -0.4294 H       1  LIG   0.1083   0.0000 
18    H3       5.4849  -10.6607    0.4719 H       1  LIG   0.1097   0.0000 
19    H4       3.5203  -10.7551   -1.8054 H       1  LIG   0.1039   0.0000 
20    H5       2.9973  -10.3434   -0.1321 H       1  LIG   0.1088   0.0000 
21    H6       2.6315   -9.2395   -1.5109 H       1  LIG   0.1039   0.0000 
22    H7       5.5893   -7.7824    0.3526 H       1  LIG   0.1224   0.0000 
23    H8       4.1255   -8.5097    1.0617 H       1  LIG   0.1197   0.0000 
24    H9       2.7088   -7.2328   -0.5524 H       1  LIG   0.0879   0.0000 
25    H10      4.1773   -6.6288   -1.3795 H       1  LIG   0.0865   0.0000 
26    H11      2.3109   -5.2259   -1.7781 H       1  LIG   0.1164   0.1500 
27    H12      1.2472   -3.1104   -2.4167 H       1  LIG   0.1495   0.1500 
28    H13      3.7560   -3.4036    1.8940 H       1  LIG   0.1633   0.1500 
29    H14      2.3975   -0.9811    2.3701 H       1  LIG   0.0672   0.0000 
30    H15      3.5248   -0.3488    1.1261 H       1  LIG   0.0666   0.0000 
31    H16      0.4785   -0.3944    1.1287 H       1  LIG   0.0577   0.0000 
32    H17      1.5218    0.9333    0.6183 H       1  LIG   0.0588   0.0000 
33    H18      1.9884   -0.1534   -1.5064 H       1  LIG   0.0701   0.0000 
34    H19      0.3123   -0.7162   -1.2030 H       1  LIG   0.0702   0.0000 
35    N1       4.6537   -9.2331   -0.8650 N.4     1  LIG  -0.6792  -0.9590 
36    H20      4.9343   -8.8228   -1.7660 H       1  LIG   0.4481   0.4500 
@<TRIPOS>BOND
1     1     16    1
2     1     17    1
3     1     18    1
4     1     35    1
5     2     19    1
6     2     20    1
7     2     21    1
8     2     35    1
9     3     4     1
10    3     22    1
11    3     23    1
12    3     35    1
13    4     5     1
14    4     24    1
15    4     25    1
16    5     6     2
17    5     7     1
18    7     12    ar
19    7     8     ar
20    8     9     ar
21    8     26    1
22    9     10    ar
23    9     27    1
24    10    15    1
25    10    11    ar
26    11    12    ar
27    11    13    1
28    12    28    1
29    13    14    1
30    13    29    1
31    13    30    1
32    14    15    1
33    14    31    1
34    14    32    1
35    15    33    1
36    15    34    1
37    35    36    1
@<TRIPOS>SUBSTRUCTURE
1   LIG    1    
 
########## Number      : 664
########## Name        : ZINC00005239
########## Description : AM1BCC_CHARGES =  -0.0002 ORIGINAL_CHARGES =   0.0000

@<TRIPOS>MOLECULE
ZINC00005239
29    31    1     0     0    
SMALL
USER_CHARGES
****
****
@<TRIPOS>ATOM
1     C1       5.7725   -9.1288    0.3118 C.ar    1  LIG  -0.1174  -0.1500 
2     C2       4.4464   -9.1012    0.7397 C.ar    1  LIG  -0.1363  -0.1500 
3     C3       3.7529   -7.8909    0.7905 C.ar    1  LIG  -0.1013  -0.1500 
4     C4       4.3790   -6.6976    0.4055 C.ar    1  LIG  -0.0992  -0.1435 
5     C5       5.7161   -6.7346   -0.0126 C.ar    1  LIG  -0.1007  -0.1500 
6     C6       6.4077   -7.9460   -0.0625 C.ar    1  LIG  -0.1360  -0.1500 
7     C7       3.6389   -5.3875    0.4826 C.3     1  LIG   0.1810   0.4235 
8     O1       3.8508   -4.8437    1.7822 O.3     1  LIG  -0.4184  -0.3625 
9     C8       3.2448   -3.6314    2.0457 C.ar    1  LIG   0.7576   0.3925 
10    C9       2.4456   -2.8723    1.1858 C.ar    1  LIG  -0.2693   0.2272 
11    C10      1.9558   -1.6833    1.6993 C.ar    1  LIG   0.4912   0.1054 
12    N1       1.2167   -1.1271    0.6949 N.pl3   1  LIG  -0.3888   0.0332 
13    C11      1.2808   -1.9787   -0.3727 C.2     1  LIG   0.3972   0.0365 
14    N2       2.0131   -3.0396   -0.1103 N.2     1  LIG  -0.5359  -0.5653 
15    N3       2.1570   -1.1751    2.9209 N.ar    1  LIG  -0.7877  -0.5670 
16    C12      2.9367   -1.9665    3.6866 C.ar    1  LIG   0.9189   0.7200 
17    N4       3.4753   -3.1510    3.2988 N.ar    1  LIG  -0.7864  -0.6200 
18    N5       3.2112   -1.5380    4.9724 N.pl3   1  LIG  -0.9357  -0.9000 
19    H1       0.7171   -0.2493    0.7371 H       1  LIG   0.3181   0.2700 
20    H2       2.8291   -0.6623    5.2983 H       1  LIG   0.4342   0.4000 
21    H3       3.7915   -2.1065    5.5718 H       1  LIG   0.4384   0.4000 
22    H4       6.3118  -10.0709    0.2737 H       1  LIG   0.1315   0.1500 
23    H5       3.9526  -10.0220    1.0369 H       1  LIG   0.1327   0.1500 
24    H6       2.7212   -7.8842    1.1334 H       1  LIG   0.1356   0.1500 
25    H7       6.2271   -5.8193   -0.3007 H       1  LIG   0.1363   0.1500 
26    H8       7.4430   -7.9662   -0.3908 H       1  LIG   0.1329   0.1500 
27    H9       4.0241   -4.7101   -0.2895 H       1  LIG   0.0675   0.0000 
28    H10      2.5710   -5.5659    0.3055 H       1  LIG   0.0667   0.0000 
29    H11      0.7759   -1.7703   -1.3055 H       1  LIG   0.0731   0.1500 
@<TRIPOS>BOND
1     1     6     ar
2     1     2     ar
3     1     22    1
4     2     3     ar
5     2     23    1
6     3     4     ar
7     3     24    1
8     4     5     ar
9     4     7     1
10    5     6     ar
11    5     25    1
12    6     26    1
13    7     8     1
14    7     27    1
15    7     28    1
16    8     9     1
17    9     17    ar
18    9     10    ar
19    10    14    1
20    10    11    ar
21    11    12    1
22    11    15    ar
23    12    13    1
24    12    19    1
25    13    14    2
26    13    29    1
27    15    16    ar
28    16    17    ar
29    16    18    1
30    18    20    1
31    18    21    1
@<TRIPOS>SUBSTRUCTURE
1   LIG    1    
 
########## Number      : 665
########## Name        : ZINC00005250
########## Description : AM1BCC_CHARGES =   1.0001 ORIGINAL_CHARGES =   1.0000

@<TRIPOS>MOLECULE
ZINC00005250
45    47    1     0     0    
SMALL
USER_CHARGES
****
****
@<TRIPOS>ATOM
1     C1       2.5336   -5.3844   -5.3822 C.3     1  LIG  -0.1297   0.0000 
2     C2       2.1087   -6.3617   -4.2840 C.3     1  LIG   0.1346   0.5030 
3     C3       0.5852   -6.5035   -4.3106 C.3     1  LIG  -0.1333   0.0000 
4     C4       2.1263   -6.7604   -1.7658 C.3     1  LIG   0.1194   0.5030 
5     C5       2.5992   -6.2516   -0.4001 C.3     1  LIG  -0.1070   0.0000 
6     C6       4.1210   -6.1158   -0.4043 C.3     1  LIG  -0.0917   0.0000 
7     C7       4.5122   -5.0877   -1.4644 C.3     1  LIG  -0.1085   0.0000 
8     C8       4.0679   -5.5837   -2.8446 C.3     1  LIG   0.1164   0.5030 
9     C9       3.8755   -3.7249   -1.1457 C.3     1  LIG   0.0777   0.3001 
10    N1       2.4227   -3.8007   -0.9186 N.am    1  LIG  -0.4959  -0.6602 
11    C10      1.9522   -4.8995   -0.0690 C.3     1  LIG   0.0734   0.3001 
12    C11      1.5007   -2.8265   -1.3225 C.2     1  LIG   0.6639   0.5438 
13    O1       0.2833   -2.8961   -1.1643 O.2     1  LIG  -0.5963  -0.5700 
14    C12      2.0055   -1.6272   -2.0066 C.ar    1  LIG  -0.1673   0.0862 
15    C13      1.7106   -1.4469   -3.3600 C.ar    1  LIG  -0.0861  -0.1500 
16    C14      2.1647   -0.3010   -4.0122 C.ar    1  LIG  -0.1301  -0.1500 
17    C15      2.8953    0.6559   -3.3040 C.ar    1  LIG   0.0487   0.1770 
18    C16      3.1726    0.4808   -1.9464 C.ar    1  LIG  -0.1275  -0.1500 
19    C17      2.7210   -0.6638   -1.2901 C.ar    1  LIG  -0.0814  -0.1500 
20    Cl1      3.4547    2.0702   -4.1123 Cl      1  LIG  -0.0410  -0.1770 
21    H1       3.6162   -5.3998   -5.5399 H       1  LIG   0.0619   0.0000 
22    H2       2.0808   -5.6585   -6.3417 H       1  LIG   0.0954   0.0000 
23    H3       2.2293   -4.3588   -5.1481 H       1  LIG   0.0637   0.0000 
24    H4       2.5843   -7.3368   -4.4405 H       1  LIG   0.1001   0.0000 
25    H5       0.2453   -7.3363   -3.6880 H       1  LIG   0.0641   0.0000 
26    H6       0.0903   -5.5878   -3.9691 H       1  LIG   0.0751   0.0000 
27    H7       0.2332   -6.7171   -5.3262 H       1  LIG   0.0932   0.0000 
28    H8       1.0339   -6.8007   -1.7750 H       1  LIG   0.1099   0.0000 
29    H9       2.5276   -7.7582   -1.9767 H       1  LIG   0.0951   0.0000 
30    H10      2.3434   -6.9804    0.3869 H       1  LIG   0.1105   0.0000 
31    H11      4.4754   -5.7949    0.5830 H       1  LIG   0.0897   0.0000 
32    H12      4.5925   -7.0835   -0.6149 H       1  LIG   0.0654   0.0000 
33    H13      5.6101   -4.9912   -1.4290 H       1  LIG   0.1077   0.0000 
34    H14      4.5724   -6.5194   -3.1111 H       1  LIG   0.0992   0.0000 
35    H15      4.3022   -4.8206   -3.5915 H       1  LIG   0.0975   0.0000 
36    H16      4.3101   -3.3227   -0.2224 H       1  LIG   0.0806   0.0000 
37    H17      4.1109   -3.0201   -1.9478 H       1  LIG   0.0794   0.0000 
38    H18      0.8607   -4.9807   -0.1145 H       1  LIG   0.1006   0.0000 
39    H19      2.2032   -4.6166    0.9611 H       1  LIG   0.0796   0.0000 
40    H20      1.1354   -2.1870   -3.9094 H       1  LIG   0.1427   0.1500 
41    H21      1.9412   -0.1625   -5.0667 H       1  LIG   0.1636   0.1500 
42    H22      3.7338    1.2282   -1.3918 H       1  LIG   0.1669   0.1500 
43    H23      2.9282   -0.7950   -0.2316 H       1  LIG   0.1527   0.1500 
44    N2       2.5710   -5.8540   -2.9058 N.4     1  LIG  -0.6859  -0.9590 
45    H24      2.1023   -4.9502   -2.7598 H       1  LIG   0.4531   0.4500 
@<TRIPOS>BOND
1     1     2     1
2     1     21    1
3     1     22    1
4     1     23    1
5     2     3     1
6     2     24    1
7     2     44    1
8     3     25    1
9     3     26    1
10    3     27    1
11    4     5     1
12    4     28    1
13    4     29    1
14    4     44    1
15    5     11    1
16    5     6     1
17    5     30    1
18    6     7     1
19    6     31    1
20    6     32    1
21    7     8     1
22    7     9     1
23    7     33    1
24    8     34    1
25    8     35    1
26    8     44    1
27    9     10    1
28    9     36    1
29    9     37    1
30    10    11    1
31    10    12    am
32    11    38    1
33    11    39    1
34    12    13    2
35    12    14    1
36    14    19    ar
37    14    15    ar
38    15    16    ar
39    15    40    1
40    16    17    ar
41    16    41    1
42    17    18    ar
43    17    20    1
44    18    19    ar
45    18    42    1
46    19    43    1
47    44    45    1
@<TRIPOS>SUBSTRUCTURE
1   LIG    1    
 
########## Number      : 666
########## Name        : ZINC00005256
########## Description : AM1BCC_CHARGES =  -0.0000 ORIGINAL_CHARGES =  -0.0000

@<TRIPOS>MOLECULE
ZINC00005256
43    43    1     0     0    
SMALL
USER_CHARGES
****
****
@<TRIPOS>ATOM
1     C1       0.2313    4.2011   -1.0950 C.3     1  LIG  -0.0904   0.0000 
2     C2       1.1505    3.1708   -1.8117 C.3     1  LIG  -0.0067   0.1435 
3     C3       0.2448    2.5089   -2.8785 C.3     1  LIG  -0.0946   0.0000 
4     C4       2.2698    3.9859   -2.4922 C.3     1  LIG  -0.0907   0.0000 
5     C5       1.7754    2.1317   -0.8439 C.ar    1  LIG  -0.1355  -0.1435 
6     C6       1.7692    2.3833    0.5414 C.ar    1  LIG  -0.0703  -0.1500 
7     C7       2.2598    1.4582    1.4689 C.ar    1  LIG  -0.1397   0.0284 
8     C8       2.8009    0.2512    1.0212 C.ar    1  LIG  -0.0817  -0.1500 
9     C9       2.8694   -0.0645   -0.3461 C.ar    1  LIG  -0.0835  -0.1435 
10    C10      2.3670    0.9073   -1.2562 C.ar    1  LIG   0.1531   0.0825 
11    O1       2.4899    0.6100   -2.5887 O.3     1  LIG  -0.5043  -0.5325 
12    C11      3.4822   -1.4101   -0.8121 C.3     1  LIG   0.0051   0.1435 
13    C12      3.9319   -2.3303    0.3541 C.3     1  LIG  -0.0924   0.0000 
14    C13      2.4478   -2.2273   -1.6193 C.3     1  LIG  -0.0880   0.0000 
15    C14      4.7436   -1.1610   -1.6690 C.3     1  LIG  -0.0868   0.0000 
16    C15      2.2370    1.7428    2.9123 C.2     1  LIG   0.0219  -0.1784 
17    C16      1.1333    1.8928    3.6698 C.2     1  LIG   0.0903   0.1300 
18    C17     -0.1812    1.7735    3.1275 C.1     1  LIG   0.1970   0.4921 
19    N1      -1.2521    1.6794    2.6901 N.1     1  LIG  -0.3421  -0.5571 
20    C18      1.2896    2.1603    5.0627 C.1     1  LIG   0.1897   0.4921 
21    N2       1.4168    2.3780    6.1955 N.1     1  LIG  -0.3400  -0.5571 
22    H1       2.6796    1.4241   -3.0770 H       1  LIG   0.4265   0.4500 
23    H2       0.7927    4.8522   -0.4153 H       1  LIG   0.0365   0.0000 
24    H3      -0.2575    4.8672   -1.8168 H       1  LIG   0.0403   0.0000 
25    H4      -0.5600    3.7024   -0.5229 H       1  LIG   0.0496   0.0000 
26    H5       0.7986    1.9465   -3.6333 H       1  LIG   0.0319   0.0000 
27    H6      -0.4770    1.8275   -2.4132 H       1  LIG   0.0534   0.0000 
28    H7      -0.3247    3.2622   -3.4367 H       1  LIG   0.0417   0.0000 
29    H8       2.9399    3.3703   -3.0977 H       1  LIG   0.0246   0.0000 
30    H9       1.8507    4.7510   -3.1563 H       1  LIG   0.0436   0.0000 
31    H10      2.8910    4.4981   -1.7475 H       1  LIG   0.0453   0.0000 
32    H11      1.3751    3.3167    0.9335 H       1  LIG   0.1449   0.1500 
33    H12      3.1729   -0.4387    1.7736 H       1  LIG   0.1435   0.1500 
34    H13      4.3469   -3.2733   -0.0228 H       1  LIG   0.0406   0.0000 
35    H14      4.7144   -1.8612    0.9621 H       1  LIG   0.0334   0.0000 
36    H15      3.0930   -2.5910    1.0101 H       1  LIG   0.0371   0.0000 
37    H16      2.8416   -3.2180   -1.8758 H       1  LIG   0.0333   0.0000 
38    H17      1.5276   -2.3750   -1.0417 H       1  LIG   0.0366   0.0000 
39    H18      2.1694   -1.7527   -2.5640 H       1  LIG   0.0570   0.0000 
40    H19      5.2328   -2.1059   -1.9340 H       1  LIG   0.0350   0.0000 
41    H20      4.5267   -0.6498   -2.6109 H       1  LIG   0.0515   0.0000 
42    H21      5.4735   -0.5501   -1.1246 H       1  LIG   0.0326   0.0000 
43    H22      3.2253    1.8096    3.3660 H       1  LIG   0.1507   0.1500 
@<TRIPOS>BOND
1     1     2     1
2     1     23    1
3     1     24    1
4     1     25    1
5     2     3     1
6     2     4     1
7     2     5     1
8     3     26    1
9     3     27    1
10    3     28    1
11    4     29    1
12    4     30    1
13    4     31    1
14    5     10    ar
15    5     6     ar
16    6     7     ar
17    6     32    1
18    7     8     ar
19    7     16    1
20    8     9     ar
21    8     33    1
22    9     10    ar
23    9     12    1
24    10    11    1
25    11    22    1
26    12    13    1
27    12    14    1
28    12    15    1
29    13    34    1
30    13    35    1
31    13    36    1
32    14    37    1
33    14    38    1
34    14    39    1
35    15    40    1
36    15    41    1
37    15    42    1
38    16    17    2
39    16    43    1
40    17    18    1
41    17    20    1
42    18    19    3
43    20    21    3
@<TRIPOS>SUBSTRUCTURE
1   LIG    1    
 
########## Number      : 667
########## Name        : ZINC00005284
########## Description : AM1BCC_CHARGES =  -2.0001 ORIGINAL_CHARGES =  -2.0000

@<TRIPOS>MOLECULE
ZINC00005284
15    15    1     0     0    
SMALL
USER_CHARGES
****
****
@<TRIPOS>ATOM
1     C1       3.4665   -7.3931   -1.6268 C.ar    1  LIG  -0.1086  -0.1500 
2     C2       2.4004   -6.5053   -1.4799 C.ar    1  LIG  -0.2597  -0.1500 
3     C3       1.7877   -6.3802   -0.2344 C.ar    1  LIG   0.3450   0.1310 
4     N1       2.2050   -7.1025    0.8374 N.ar    1  LIG  -0.6765  -0.6200 
5     C4       3.2431   -7.9559    0.6608 C.ar    1  LIG   0.3768   0.1600 
6     C5       3.9146   -8.1471   -0.5409 C.ar    1  LIG  -0.2541  -0.1790 
7     C6       5.0591   -9.1129   -0.6607 C.2     1  LIG   0.9108   0.9790 
8     O1       5.6127   -9.2214   -1.7995 O.co2   1  LIG  -0.8637  -0.9000 
9     C7       0.6303   -5.4282   -0.0389 C.2     1  LIG   0.8084   0.9790 
10    O2       0.2456   -4.7557   -1.0474 O.co2   1  LIG  -0.8682  -0.9000 
11    H1       3.9395   -7.4854   -2.6014 H       1  LIG   0.1265   0.1500 
12    H2       2.0674   -5.9283   -2.3371 H       1  LIG   0.1394   0.1500 
13    H3       3.5224   -8.4993    1.5590 H       1  LIG   0.0096   0.1500 
14    O3       5.3919   -9.7524    0.3858 O.co2   1  LIG  -0.8607  -0.9000 
15    O4       0.1227   -5.3685    1.1251 O.co2   1  LIG  -0.8251  -0.9000 
@<TRIPOS>BOND
1     1     6     ar
2     1     2     ar
3     1     11    1
4     2     3     ar
5     2     12    1
6     3     4     ar
7     3     9     1
8     4     5     ar
9     5     6     ar
10    5     13    1
11    6     7     1
12    7     8     2
13    7     14    1
14    9     10    2
15    9     15    1
@<TRIPOS>SUBSTRUCTURE
1   LIG    1    
 
########## Number      : 668
########## Name        : ZINC00005319
########## Description : AM1BCC_CHARGES =   0.9999 ORIGINAL_CHARGES =   1.0000

@<TRIPOS>MOLECULE
ZINC00005319
47    51    1     0     0    
SMALL
USER_CHARGES
****
****
@<TRIPOS>ATOM
1     C1       5.5496    4.9748   -0.5237 C.3     1  LIG   0.0811   0.5030 
2     C2       3.9322    6.5350   -1.6604 C.3     1  LIG   0.1153   0.5030 
3     C3       2.7118    5.8698   -1.0404 C.3     1  LIG  -0.0549   0.1435 
4     C4       2.3576    4.5425   -1.6622 C.ar    1  LIG  -0.0799  -0.1435 
5     C5       1.1063    3.9909   -1.3803 C.ar    1  LIG  -0.1150  -0.1500 
6     C6       0.8026    2.7724   -1.9368 C.ar    1  LIG   0.1019   0.0825 
7     C7       1.6873    2.0929   -2.7525 C.ar    1  LIG   0.0770   0.0825 
8     C8       2.9707    2.5751   -3.0775 C.ar    1  LIG   0.0339   0.0000 
9     C9       3.2857    3.8311   -2.4760 C.ar    1  LIG  -0.1385  -0.1435 
10    C10      4.6061    4.4875   -2.8462 C.3     1  LIG   0.1983   0.6465 
11    C11      5.7175    3.4444   -3.0292 C.3     1  LIG  -0.0402   0.1435 
12    C12      5.2670    2.3570   -3.9804 C.ar    1  LIG  -0.0919  -0.1435 
13    C13      3.9258    1.9160   -3.9452 C.ar    1  LIG  -0.0425   0.0000 
14    C14      3.6231    0.8264   -4.8027 C.ar    1  LIG  -0.1505  -0.1500 
15    C15      4.5787    0.2129   -5.6322 C.ar    1  LIG   0.1233   0.0825 
16    C16      5.8988    0.6782   -5.6299 C.ar    1  LIG   0.1354   0.0825 
17    C17      6.2359    1.7435   -4.7984 C.ar    1  LIG  -0.1788  -0.1500 
18    O1       6.7727    0.0255   -6.4620 O.3     1  LIG  -0.2867  -0.3625 
19    C18      8.1179    0.4864   -6.4904 C.3     1  LIG   0.1053   0.2800 
20    O2       4.3179   -0.8370   -6.4794 O.3     1  LIG  -0.2916  -0.3625 
21    C19      3.0016   -1.3749   -6.4787 C.3     1  LIG   0.1052   0.2800 
22    O3       1.1493    0.8973   -3.1447 O.3     1  LIG  -0.3268  -0.3625 
23    C20     -0.1454    0.9232   -2.5213 C.3     1  LIG   0.3194   0.5600 
24    O4      -0.3709    2.1090   -1.7450 O.3     1  LIG  -0.3136  -0.3625 
25    H1       6.5413    4.5481   -0.6923 H       1  LIG   0.1002   0.0000 
26    H2       5.6401    5.8012    0.1869 H       1  LIG   0.0967   0.0000 
27    H3       4.8505    4.2215   -0.1548 H       1  LIG   0.1162   0.0000 
28    H4       4.3054    7.3539   -1.0359 H       1  LIG   0.0999   0.0000 
29    H5       3.7083    6.9421   -2.6536 H       1  LIG   0.1054   0.0000 
30    H6       2.8810    5.7116    0.0320 H       1  LIG   0.0799   0.0000 
31    H7       1.8618    6.5571   -1.1325 H       1  LIG   0.1058   0.0000 
32    H8       0.3928    4.5027   -0.7429 H       1  LIG   0.1747   0.1500 
33    H9       4.4726    4.9844   -3.8280 H       1  LIG   0.1095   0.0000 
34    H10      6.6210    3.9388   -3.4068 H       1  LIG   0.0617   0.0000 
35    H11      5.9749    2.9407   -2.0900 H       1  LIG   0.0761   0.0000 
36    H12      2.6017    0.4683   -4.8494 H       1  LIG   0.1695   0.1500 
37    H13      7.2549    2.1178   -4.7541 H       1  LIG   0.1459   0.1500 
38    H14      8.6668   -0.1308   -7.2083 H       1  LIG   0.0880   0.0000 
39    H15      8.1730    1.5245   -6.8344 H       1  LIG   0.0342   0.0000 
40    H16      8.5971    0.3649   -5.5134 H       1  LIG   0.0361   0.0000 
41    H17      2.9848   -2.2156   -7.1790 H       1  LIG   0.0850   0.0000 
42    H18      2.7317   -1.7614   -5.4903 H       1  LIG   0.0404   0.0000 
43    H19      2.2741   -0.6361   -6.8304 H       1  LIG   0.0367   0.0000 
44    H20     -0.9130    0.8595   -3.3010 H       1  LIG   0.0932   0.0000 
45    H21     -0.2377    0.0494   -1.8664 H       1  LIG   0.0945   0.0000 
46    N1       5.0533    5.5468   -1.8399 N.4     1  LIG  -0.6811  -0.9590 
47    H22      5.8790    6.0572   -2.1987 H       1  LIG   0.4462   0.4500 
@<TRIPOS>BOND
1     1     25    1
2     1     26    1
3     1     27    1
4     1     46    1
5     2     3     1
6     2     28    1
7     2     29    1
8     2     46    1
9     3     4     1
10    3     30    1
11    3     31    1
12    4     9     ar
13    4     5     ar
14    5     6     ar
15    5     32    1
16    6     24    1
17    6     7     ar
18    7     8     ar
19    7     22    1
20    8     13    1
21    8     9     ar
22    9     10    1
23    10    11    1
24    10    33    1
25    10    46    1
26    11    12    1
27    11    34    1
28    11    35    1
29    12    17    ar
30    12    13    ar
31    13    14    ar
32    14    15    ar
33    14    36    1
34    15    16    ar
35    15    20    1
36    16    17    ar
37    16    18    1
38    17    37    1
39    18    19    1
40    19    38    1
41    19    39    1
42    19    40    1
43    20    21    1
44    21    41    1
45    21    42    1
46    21    43    1
47    22    23    1
48    23    24    1
49    23    44    1
50    23    45    1
51    46    47    1
@<TRIPOS>SUBSTRUCTURE
1   LIG    1    
 
########## Number      : 669
########## Name        : ZINC00005349
########## Description : AM1BCC_CHARGES =   0.0002 ORIGINAL_CHARGES =   0.0000

@<TRIPOS>MOLECULE
ZINC00005349
42    44    1     0     0    
SMALL
USER_CHARGES
****
****
@<TRIPOS>ATOM
1     C1       9.0665  -10.2330    0.8197 C.3     1  LIG  -0.0923   0.0000 
2     C2       7.7093  -10.0901    1.4916 C.3     1  LIG  -0.0878   0.0000 
3     C3       7.6718   -8.8733    2.4208 C.3     1  LIG  -0.0615   0.0000 
4     C4       6.3215   -8.7190    3.1428 C.3     1  LIG  -0.2242   0.1220 
5     C5       5.2979   -8.0461    2.2583 C.2     1  LIG   0.6675   0.5690 
6     O1       4.8826   -8.5108    1.2087 O.2     1  LIG  -0.5538  -0.5700 
7     N1       4.9656   -6.8556    2.9043 N.am    1  LIG  -0.1731  -0.1770 
8     C6       3.9944   -5.9084    2.5336 C.ar    1  LIG  -0.0327   0.1170 
9     C7       3.1952   -6.0271    1.3887 C.ar    1  LIG  -0.1210  -0.1500 
10    C8       2.2266   -5.0584    1.0865 C.ar    1  LIG  -0.0673  -0.1435 
11    C9       2.0811   -3.9535    1.9284 C.ar    1  LIG  -0.1319  -0.1500 
12    C10      2.8760   -3.8312    3.0670 C.ar    1  LIG  -0.0908  -0.1500 
13    C11      3.8326   -4.8038    3.3775 C.ar    1  LIG   0.1270   0.1790 
14    N2       4.6182   -4.6206    4.5236 N.2     1  LIG  -0.6344  -0.6290 
15    C12      5.5262   -5.5059    4.8513 C.2     1  LIG   0.6444   0.5600 
16    N3       5.6993   -6.6871    4.0928 N.am    1  LIG  -0.2816  -0.1200 
17    C13      6.4814   -7.8352    4.3439 C.2     1  LIG   0.6791   0.5690 
18    O2       7.1546   -8.1135    5.3240 O.2     1  LIG  -0.5406  -0.5700 
19    N4       6.3272   -5.2841    5.9736 N.pl3   1  LIG  -0.6947  -0.7882 
20    C14      7.7848   -5.3340    5.9012 C.3     1  LIG   0.1820   0.3691 
21    C15      5.8032   -4.5368    7.1135 C.3     1  LIG   0.1848   0.3691 
22    C16      1.3990   -5.1782   -0.1585 C.3     1  LIG  -0.0549   0.1435 
23    H1       9.0734  -11.1079    0.1621 H       1  LIG   0.0395   0.0000 
24    H2       9.2991   -9.3510    0.2144 H       1  LIG   0.0369   0.0000 
25    H3       9.8608  -10.3601    1.5621 H       1  LIG   0.0338   0.0000 
26    H4       6.9400  -10.0049    0.7173 H       1  LIG   0.0631   0.0000 
27    H5       7.4960  -11.0008    2.0631 H       1  LIG   0.0430   0.0000 
28    H6       8.4775   -8.9761    3.1592 H       1  LIG   0.0657   0.0000 
29    H7       7.8942   -7.9667    1.8428 H       1  LIG   0.0633   0.0000 
30    H8       5.9490   -9.7144    3.4262 H       1  LIG   0.1199   0.0000 
31    H9       3.3022   -6.8679    0.7110 H       1  LIG   0.1697   0.1500 
32    H10      1.3502   -3.1808    1.7040 H       1  LIG   0.1372   0.1500 
33    H11      2.7509   -2.9658    3.7136 H       1  LIG   0.1514   0.1500 
34    H12      8.2055   -4.3342    6.0558 H       1  LIG   0.0229   0.0000 
35    H13      8.1799   -5.9964    6.6777 H       1  LIG   0.0594   0.0000 
36    H14      8.1419   -5.6810    4.9267 H       1  LIG   0.0630   0.0000 
37    H15      6.3896   -4.7419    8.0156 H       1  LIG   0.0502   0.0000 
38    H16      5.8359   -3.4609    6.9139 H       1  LIG   0.0339   0.0000 
39    H17      4.7677   -4.8254    7.3232 H       1  LIG   0.0611   0.0000 
40    H18      1.1932   -6.2285   -0.3903 H       1  LIG   0.0494   0.0000 
41    H19      0.4323   -4.6783   -0.0366 H       1  LIG   0.0438   0.0000 
42    H20      1.9265   -4.7249   -1.0034 H       1  LIG   0.0508   0.0000 
@<TRIPOS>BOND
1     1     2     1
2     1     23    1
3     1     24    1
4     1     25    1
5     2     3     1
6     2     26    1
7     2     27    1
8     3     4     1
9     3     28    1
10    3     29    1
11    4     17    1
12    4     5     1
13    4     30    1
14    5     6     2
15    5     7     am
16    7     16    1
17    7     8     1
18    8     13    ar
19    8     9     ar
20    9     10    ar
21    9     31    1
22    10    11    ar
23    10    22    1
24    11    12    ar
25    11    32    1
26    12    13    ar
27    12    33    1
28    13    14    1
29    14    15    2
30    15    16    1
31    15    19    1
32    16    17    am
33    17    18    2
34    19    20    1
35    19    21    1
36    20    34    1
37    20    35    1
38    20    36    1
39    21    37    1
40    21    38    1
41    21    39    1
42    22    40    1
43    22    41    1
44    22    42    1
@<TRIPOS>SUBSTRUCTURE
1   LIG    1    
 
########## Number      : 670
########## Name        : ZINC00005355
########## Description : AM1BCC_CHARGES =   0.9998 ORIGINAL_CHARGES =   1.0000

@<TRIPOS>MOLECULE
ZINC00005355
49    49    1     0     0    
SMALL
USER_CHARGES
****
****
@<TRIPOS>ATOM
1     C1       2.4571   -2.5317    3.5030 C.3     1  LIG  -0.0930   0.0000 
2     C2       2.5122   -3.2993    2.1551 C.3     1  LIG  -0.0106   0.1435 
3     C3       1.1079   -3.9154    1.9621 C.3     1  LIG  -0.0948   0.0000 
4     C4       2.7718   -2.2348    1.0671 C.3     1  LIG  -0.0914   0.0000 
5     C5       3.6010   -4.3995    2.1100 C.ar    1  LIG  -0.0676  -0.1435 
6     C6       4.4678   -4.5937    3.1984 C.ar    1  LIG  -0.1132  -0.1500 
7     C7       5.4491   -5.5925    3.1971 C.ar    1  LIG  -0.1992  -0.1435 
8     C8       5.5736   -6.4325    2.0846 C.ar    1  LIG  -0.0957  -0.1500 
9     C9       4.7455   -6.3025    0.9569 C.ar    1  LIG  -0.0574  -0.1435 
10    C10      3.7812   -5.2624    0.9983 C.ar    1  LIG   0.1462   0.0825 
11    O1       2.9775   -5.0821   -0.0967 O.3     1  LIG  -0.5065  -0.5325 
12    C11      4.8976   -7.2631   -0.2483 C.3     1  LIG  -0.0070   0.1435 
13    C12      5.9671   -8.3674   -0.0344 C.3     1  LIG  -0.0948   0.0000 
14    C13      3.5708   -8.0075   -0.5215 C.3     1  LIG  -0.0922   0.0000 
15    C14      5.3320   -6.4856   -1.5096 C.3     1  LIG  -0.0888   0.0000 
16    C15      6.3673   -5.7530    4.3814 C.3     1  LIG   0.1796   0.6465 
17    C16      8.0809   -4.7092    5.8702 C.3     1  LIG   0.0809   0.5030 
18    C17      8.4152   -4.6432    3.4094 C.3     1  LIG   0.0819   0.5030 
19    H1       3.4443   -4.4529   -0.6734 H       1  LIG   0.4336   0.4500 
20    H2       3.3946   -2.0007    3.7057 H       1  LIG   0.0230   0.0000 
21    H3       1.6613   -1.7766    3.4969 H       1  LIG   0.0594   0.0000 
22    H4       2.2513   -3.2049    4.3435 H       1  LIG   0.0388   0.0000 
23    H5       0.9636   -4.3473    0.9681 H       1  LIG   0.0644   0.0000 
24    H6       0.9224   -4.7084    2.6963 H       1  LIG   0.0443   0.0000 
25    H7       0.3245   -3.1581    2.0860 H       1  LIG   0.0495   0.0000 
26    H8       2.6475   -2.6238    0.0535 H       1  LIG   0.0372   0.0000 
27    H9       2.0727   -1.3952    1.1623 H       1  LIG   0.0583   0.0000 
28    H10      3.7882   -1.8313    1.1450 H       1  LIG   0.0320   0.0000 
29    H11      4.3990   -3.9700    4.0852 H       1  LIG   0.1336   0.1500 
30    H12      6.3443   -7.1970    2.1248 H       1  LIG   0.1453   0.1500 
31    H13      6.0268   -9.0349   -0.9030 H       1  LIG   0.0586   0.0000 
32    H14      6.9675   -7.9413    0.1054 H       1  LIG   0.0258   0.0000 
33    H15      5.7328   -8.9943    0.8340 H       1  LIG   0.0387   0.0000 
34    H16      3.6950   -8.7577   -1.3118 H       1  LIG   0.0482   0.0000 
35    H17      3.2196   -8.5273    0.3778 H       1  LIG   0.0411   0.0000 
36    H18      2.7681   -7.3429   -0.8519 H       1  LIG   0.0661   0.0000 
37    H19      5.5503   -7.1696   -2.3386 H       1  LIG   0.0564   0.0000 
38    H20      4.5625   -5.7998   -1.8725 H       1  LIG   0.0411   0.0000 
39    H21      6.2368   -5.8970   -1.3176 H       1  LIG   0.0294   0.0000 
40    H22      5.7653   -5.7477    5.2985 H       1  LIG   0.1035   0.0000 
41    H23      6.9096   -6.7057    4.3494 H       1  LIG   0.1037   0.0000 
42    H24      8.7664   -3.8607    5.9415 H       1  LIG   0.1027   0.0000 
43    H25      7.3101   -4.6273    6.6410 H       1  LIG   0.1034   0.0000 
44    H26      8.6191   -5.6573    5.9512 H       1  LIG   0.1046   0.0000 
45    H27      9.1182   -3.8267    3.5957 H       1  LIG   0.0992   0.0000 
46    H28      8.9313   -5.6068    3.3958 H       1  LIG   0.1005   0.0000 
47    H29      7.8904   -4.4622    2.4686 H       1  LIG   0.1146   0.0000 
48    N1       7.4060   -4.6540    4.5260 N.4     1  LIG  -0.6845  -0.9590 
49    H30      6.9062   -3.7558    4.4871 H       1  LIG   0.4509   0.4500 
@<TRIPOS>BOND
1     1     2     1
2     1     20    1
3     1     21    1
4     1     22    1
5     2     3     1
6     2     4     1
7     2     5     1
8     3     23    1
9     3     24    1
10    3     25    1
11    4     26    1
12    4     27    1
13    4     28    1
14    5     10    ar
15    5     6     ar
16    6     7     ar
17    6     29    1
18    7     8     ar
19    7     16    1
20    8     9     ar
21    8     30    1
22    9     10    ar
23    9     12    1
24    10    11    1
25    11    19    1
26    12    13    1
27    12    14    1
28    12    15    1
29    13    31    1
30    13    32    1
31    13    33    1
32    14    34    1
33    14    35    1
34    14    36    1
35    15    37    1
36    15    38    1
37    15    39    1
38    16    40    1
39    16    41    1
40    16    48    1
41    17    42    1
42    17    43    1
43    17    44    1
44    17    48    1
45    18    45    1
46    18    46    1
47    18    47    1
48    18    48    1
49    48    49    1
@<TRIPOS>SUBSTRUCTURE
1   LIG    1    
 
########## Number      : 671
########## Name        : ZINC00005368
########## Description : AM1BCC_CHARGES =  -0.0001 ORIGINAL_CHARGES =  -0.0000

@<TRIPOS>MOLECULE
ZINC00005368
40    43    1     0     0    
SMALL
USER_CHARGES
****
****
@<TRIPOS>ATOM
1     C1      -1.9755    2.6407   -3.1461 C.3     1  LIG  -0.0350   0.1382 
2     C2      -2.9699    3.5658   -2.5061 C.2     1  LIG  -0.2708  -0.1238 
3     C3      -4.0255    4.1478   -3.1059 C.2     1  LIG   0.1567  -0.0382 
4     N1      -4.8603    5.0175   -2.4447 N.pl3   1  LIG  -0.6150  -0.6000 
5     C4      -4.6973    5.4010   -1.0997 C.ar    1  LIG   0.1760   0.1000 
6     C5      -5.5836    6.3545   -0.5178 C.ar    1  LIG  -0.1073  -0.1435 
7     C6      -5.4454    6.6424    0.8696 C.ar    1  LIG  -0.0035   0.0000 
8     C7      -6.1992    7.4361    1.8177 C.ar    1  LIG  -0.0829   0.0000 
9     C8      -7.3894    8.1999    1.7642 C.ar    1  LIG  -0.0668  -0.1500 
10    C9      -7.8415    8.8629    2.9133 C.ar    1  LIG  -0.0215   0.1770 
11    C10     -7.1451    8.7798    4.1136 C.ar    1  LIG  -0.0871  -0.1500 
12    C11     -5.9776    8.0211    4.1981 C.ar    1  LIG  -0.1542  -0.1500 
13    C12     -5.5391    7.3632    3.0419 C.ar    1  LIG  -0.0049  -0.1516 
14    N2      -4.4508    6.5528    2.8621 N.pl3   1  LIG  -0.1661   0.0332 
15    C13     -4.3791    6.0736    1.5706 C.ar    1  LIG  -0.0740  -0.1516 
16    C14     -3.4345    5.1876    1.0077 C.ar    1  LIG   0.0016  -0.1435 
17    C15     -3.6385    4.8434   -0.3524 C.ar    1  LIG  -0.1779   0.0862 
18    C16     -2.7355    3.8667   -1.0539 C.2     1  LIG   0.5901   0.4694 
19    O1      -1.8172    3.3004   -0.4706 O.2     1  LIG  -0.5819  -0.5700 
20    C17     -2.3012    4.6381    1.8313 C.3     1  LIG  -0.0564   0.1435 
21    Cl1     -9.2910    9.7934    2.8360 Cl      1  LIG  -0.0992  -0.1770 
22    C18     -6.6518    6.9994   -1.3686 C.3     1  LIG  -0.0542   0.1435 
23    C19     -4.4069    3.8882   -4.5419 C.3     1  LIG  -0.0729   0.1382 
24    H1      -3.7998    6.3181    3.5973 H       1  LIG   0.2851   0.2700 
25    H2      -5.6595    5.3618   -2.9594 H       1  LIG   0.4486   0.4000 
26    H3      -0.9528    2.9374   -2.8877 H       1  LIG   0.0705   0.0000 
27    H4      -2.1355    1.6149   -2.7990 H       1  LIG   0.0375   0.0000 
28    H5      -2.0238    2.6437   -4.2376 H       1  LIG   0.0288   0.0000 
29    H6      -7.9665    8.2695    0.8483 H       1  LIG   0.1499   0.1500 
30    H7      -7.5035    9.2970    5.0002 H       1  LIG   0.1489   0.1500 
31    H8      -5.4327    7.9422    5.1334 H       1  LIG   0.1445   0.1500 
32    H9      -1.3392    4.8834    1.3702 H       1  LIG   0.0771   0.0000 
33    H10     -2.2745    5.0598    2.8398 H       1  LIG   0.0268   0.0000 
34    H11     -2.4020    3.5541    1.9441 H       1  LIG   0.0713   0.0000 
35    H12     -6.9423    7.9740   -0.9736 H       1  LIG   0.0563   0.0000 
36    H13     -6.2898    7.2097   -2.3799 H       1  LIG   0.0380   0.0000 
37    H14     -7.5324    6.3530   -1.4229 H       1  LIG   0.0448   0.0000 
38    H15     -5.4953    3.7988   -4.6395 H       1  LIG   0.0457   0.0000 
39    H16     -4.0753    4.7176   -5.1749 H       1  LIG   0.0636   0.0000 
40    H17     -3.9916    2.9586   -4.9386 H       1  LIG   0.0697   0.0000 
@<TRIPOS>BOND
1     1     2     1
2     1     26    1
3     1     27    1
4     1     28    1
5     2     3     2
6     2     18    1
7     3     23    1
8     3     4     1
9     4     25    1
10    4     5     1
11    5     6     ar
12    5     17    ar
13    6     7     ar
14    6     22    1
15    7     15    ar
16    7     8     1
17    8     13    ar
18    8     9     ar
19    9     10    ar
20    9     29    1
21    10    11    ar
22    10    21    1
23    11    12    ar
24    11    30    1
25    12    13    ar
26    12    31    1
27    13    14    1
28    14    15    1
29    14    24    1
30    15    16    ar
31    16    17    ar
32    16    20    1
33    17    18    1
34    18    19    2
35    20    32    1
36    20    33    1
37    20    34    1
38    22    35    1
39    22    36    1
40    22    37    1
41    23    38    1
42    23    39    1
43    23    40    1
@<TRIPOS>SUBSTRUCTURE
1   LIG    1    
 
########## Number      : 672
########## Name        : ZINC00005370
########## Description : AM1BCC_CHARGES =   0.0001 ORIGINAL_CHARGES =   0.0000

@<TRIPOS>MOLECULE
ZINC00005370
30    33    1     0     0    
SMALL
USER_CHARGES
****
****
@<TRIPOS>ATOM
1     C1      -9.5439    8.4542    2.3969 C.ar    1  LIG  -0.1552  -0.1500 
2     C2      -9.3197    7.9679    3.6867 C.ar    1  LIG  -0.1074  -0.1500 
3     C3      -8.5377    6.8295    3.9089 C.ar    1  LIG  -0.1347  -0.1500 
4     C4      -7.9937    6.2080    2.7828 C.ar    1  LIG  -0.0347  -0.1516 
5     C5      -8.2060    6.6681    1.4791 C.ar    1  LIG   0.0623   0.2272 
6     C6      -8.9939    7.8143    1.2794 C.ar    1  LIG  -0.0652  -0.1500 
7     N1      -7.5727    5.8627    0.5491 N.2     1  LIG  -0.5319  -0.5653 
8     C7      -6.9887    4.9303    1.2640 C.2     1  LIG   0.4100   0.0065 
9     N2      -7.1983    5.1222    2.6031 N.pl3   1  LIG  -0.1887   0.0476 
10    C8      -6.6373    4.1358    3.5056 C.3     1  LIG   0.2292   0.6291 
11    S1      -5.8126    2.8894    2.4739 S.3     1  LIG  -0.3103  -0.4600 
12    C9      -6.1806    3.7492    0.8869 C.3     1  LIG  -0.0078   0.4100 
13    C10     -5.6867    4.7520    4.5188 C.ar    1  LIG  -0.1829  -0.1435 
14    C11     -5.8137    4.4421    5.8799 C.ar    1  LIG   0.1669   0.1900 
15    C12     -4.9565    4.9804    6.8397 C.ar    1  LIG  -0.1841  -0.1500 
16    C13     -3.9381    5.8456    6.4490 C.ar    1  LIG  -0.0661  -0.1500 
17    C14     -3.7799    6.1640    5.1028 C.ar    1  LIG  -0.1850  -0.1500 
18    C15     -4.6449    5.6176    4.1544 C.ar    1  LIG   0.1919   0.1900 
19    F1      -4.4530    5.9388    2.8663 F       1  LIG  -0.1190  -0.1900 
20    F2      -6.7819    3.6083    6.2890 F       1  LIG  -0.1320  -0.1900 
21    H1     -10.1563    9.3415    2.2568 H       1  LIG   0.1344   0.1500 
22    H2      -9.7610    8.4842    4.5360 H       1  LIG   0.1335   0.1500 
23    H3      -8.3648    6.4555    4.9118 H       1  LIG   0.1402   0.1500 
24    H4      -9.1764    8.1956    0.2800 H       1  LIG   0.1493   0.1500 
25    H5      -7.4859    3.7286    4.0816 H       1  LIG   0.1088   0.0000 
26    H6      -6.7364    3.0772    0.2281 H       1  LIG   0.1057   0.0000 
27    H7      -5.2440    4.0444    0.4072 H       1  LIG   0.1067   0.0000 
28    H8      -5.0840    4.7230    7.8869 H       1  LIG   0.1583   0.1500 
29    H9      -3.2668    6.2677    7.1913 H       1  LIG   0.1486   0.1500 
30    H10     -2.9844    6.8334    4.7891 H       1  LIG   0.1593   0.1500 
@<TRIPOS>BOND
1     1     6     ar
2     1     2     ar
3     1     21    1
4     2     3     ar
5     2     22    1
6     3     4     ar
7     3     23    1
8     4     9     1
9     4     5     ar
10    5     6     ar
11    5     7     1
12    6     24    1
13    7     8     2
14    8     12    1
15    8     9     1
16    9     10    1
17    10    11    1
18    10    13    1
19    10    25    1
20    11    12    1
21    12    26    1
22    12    27    1
23    13    18    ar
24    13    14    ar
25    14    15    ar
26    14    20    1
27    15    16    ar
28    15    28    1
29    16    17    ar
30    16    29    1
31    17    18    ar
32    17    30    1
33    18    19    1
@<TRIPOS>SUBSTRUCTURE
1   LIG    1    
 
########## Number      : 673
########## Name        : ZINC00005467
########## Description : AM1BCC_CHARGES =   0.0002 ORIGINAL_CHARGES =   0.0000

@<TRIPOS>MOLECULE
ZINC00005467
14    14    1     0     0    
SMALL
USER_CHARGES
****
****
@<TRIPOS>ATOM
1     C1       4.8489   -9.0724   -4.6363 C.1     1  LIG  -0.1114  -0.1770 
2     C2       4.6732   -9.1289   -3.4499 C.1     1  LIG  -0.1529  -0.0650 
3     C3       4.4644   -9.1928   -2.0443 C.2     1  LIG  -0.1133   0.0794 
4     C4       4.5673  -10.3510   -1.3803 C.2     1  LIG   0.0655  -0.0410 
5     N1       4.3727  -10.4461   -0.0291 N.am    1  LIG  -0.4668  -0.5390 
6     C5       4.0542   -9.3648    0.7712 C.2     1  LIG   0.8027   0.6900 
7     O1       3.8813   -9.4615    1.9854 O.2     1  LIG  -0.6313  -0.5700 
8     N2       3.9447   -8.1565    0.0920 N.am    1  LIG  -0.5863  -0.4900 
9     C6       4.1235   -7.9642   -1.2688 C.2     1  LIG   0.7250   0.6156 
10    O2       4.0124   -6.8673   -1.8103 O.2     1  LIG  -0.5880  -0.5700 
11    H1       4.4670  -11.3576    0.4082 H       1  LIG   0.3579   0.3700 
12    H2       3.7120   -7.3390    0.6457 H       1  LIG   0.3565   0.3700 
13    H3       5.0044   -9.0206   -5.6886 H       1  LIG   0.1715   0.1770 
14    H4       4.8116  -11.2861   -1.8735 H       1  LIG   0.1711   0.1500 
@<TRIPOS>BOND
1     1     2     3
2     1     13    1
3     2     3     1
4     3     9     1
5     3     4     2
6     4     5     1
7     4     14    1
8     5     6     am
9     5     11    1
10    6     7     2
11    6     8     am
12    8     9     am
13    8     12    1
14    9     10    2
@<TRIPOS>SUBSTRUCTURE
1   LIG    1    
 
########## Number      : 674
########## Name        : ZINC00005473
########## Description : AM1BCC_CHARGES =  -0.0001 ORIGINAL_CHARGES =   0.0000

@<TRIPOS>MOLECULE
ZINC00005473
22    22    1     0     0    
SMALL
USER_CHARGES
****
****
@<TRIPOS>ATOM
1     C1       6.4609   -9.0345    0.8305 C.3     1  LIG   0.1131   0.2800 
2     O1       5.4820   -9.3980   -0.1359 O.3     1  LIG  -0.3269  -0.3625 
3     C2       4.4141   -8.5545   -0.2788 C.ar    1  LIG   0.1083   0.0825 
4     C3       4.1930   -7.3817    0.4416 C.ar    1  LIG  -0.1815  -0.1500 
5     C4       3.0531   -6.5984    0.2010 C.ar    1  LIG  -0.1113  -0.1500 
6     C5       2.1193   -6.9696   -0.7664 C.ar    1  LIG   0.0236   0.1170 
7     C6       2.3447   -8.1588   -1.4767 C.ar    1  LIG  -0.1439  -0.1500 
8     C7       3.4794   -8.9396   -1.2389 C.ar    1  LIG  -0.1358  -0.1500 
9     N1       0.9333   -6.2658   -1.0924 N.pl3   1  LIG  -0.4222  -0.5470 
10    C8       0.4330   -5.0273   -0.7129 C.2     1  LIG   0.5963   0.5000 
11    S1       1.1148   -3.8092    0.2026 S.2     1  LIG  -0.5890  -0.3800 
12    N2      -0.8351   -4.8194   -1.2254 N.pl3   1  LIG  -0.6455  -0.8000 
13    H1       0.3415   -6.7538   -1.7591 H       1  LIG   0.3088   0.3700 
14    H2      -1.3287   -3.9529   -1.0398 H       1  LIG   0.3480   0.3700 
15    H3      -1.3189   -5.5136   -1.7828 H       1  LIG   0.3006   0.3700 
16    H4       7.2432   -9.7995    0.8172 H       1  LIG   0.0663   0.0000 
17    H5       6.9279   -8.0765    0.5787 H       1  LIG   0.0352   0.0000 
18    H6       6.0323   -9.0144    1.8379 H       1  LIG   0.0344   0.0000 
19    H7       4.8840   -7.0429    1.2079 H       1  LIG   0.1438   0.1500 
20    H8       2.9369   -5.7181    0.8182 H       1  LIG   0.1976   0.1500 
21    H9       1.6398   -8.4938   -2.2351 H       1  LIG   0.1291   0.1500 
22    H10      3.6265   -9.8524   -1.8112 H       1  LIG   0.1509   0.1500 
@<TRIPOS>BOND
1     1     2     1
2     1     16    1
3     1     17    1
4     1     18    1
5     2     3     1
6     3     8     ar
7     3     4     ar
8     4     5     ar
9     4     19    1
10    5     6     ar
11    5     20    1
12    6     7     ar
13    6     9     1
14    7     8     ar
15    7     21    1
16    8     22    1
17    9     10    1
18    9     13    1
19    10    11    2
20    10    12    1
21    12    14    1
22    12    15    1
@<TRIPOS>SUBSTRUCTURE
1   LIG    1    
 
########## Number      : 675
########## Name        : ZINC00005559
########## Description : AM1BCC_CHARGES =  -0.0001 ORIGINAL_CHARGES =   0.0000

@<TRIPOS>MOLECULE
ZINC00005559
24    25    1     0     0    
SMALL
USER_CHARGES
****
****
@<TRIPOS>ATOM
1     C1       4.9860   -7.1800    0.7581 C.ar    1  LIG  -0.0998  -0.1500 
2     C2       4.5803   -8.5058    0.7325 C.ar    1  LIG  -0.2373  -0.1500 
3     C3       3.2575   -8.7653    0.4295 C.ar    1  LIG   0.3933   0.1600 
4     N1       2.3408   -7.8081    0.1581 N.ar    1  LIG  -0.6599  -0.6200 
5     C4       2.7444   -6.5101    0.1847 C.ar    1  LIG   0.3449   0.3100 
6     C5       4.0663   -6.1694    0.4831 C.ar    1  LIG  -0.2053  -0.1500 
7     C6       1.7113   -5.4987   -0.1176 C.ar    1  LIG   0.3552   0.3100 
8     C7       0.3861   -5.8348   -0.3959 C.ar    1  LIG  -0.1927  -0.1500 
9     C8      -0.5303   -4.8214   -0.6671 C.ar    1  LIG  -0.1041  -0.1500 
10    C9      -0.1196   -3.4948   -0.6621 C.ar    1  LIG  -0.1875  -0.1500 
11    C10      1.2138   -3.2313   -0.3835 C.ar    1  LIG   0.3736   0.3962 
12    N2       2.1206   -4.2031   -0.1108 N.ar    1  LIG  -0.6574  -0.6200 
13    C11      1.7416   -1.8415   -0.3596 C.2     1  LIG   0.3327   0.3538 
14    S1       3.0227   -1.3420    0.6030 S.2     1  LIG  -0.4795  -0.3800 
15    N3       1.1297   -0.9351   -1.1966 N.pl3   1  LIG  -0.5725  -0.8000 
16    H1       1.4485    0.0280   -1.2223 H       1  LIG   0.3273   0.3700 
17    H2       0.3808   -1.1751   -1.8368 H       1  LIG   0.3191   0.3700 
18    H3       6.0164   -6.9284    0.9917 H       1  LIG   0.1426   0.1500 
19    H4       5.2761   -9.3095    0.9428 H       1  LIG   0.1454   0.1500 
20    H5       2.8836   -9.7835    0.3950 H       1  LIG   0.0240   0.1500 
21    H6       4.3980   -5.1355    0.5073 H       1  LIG   0.1617   0.1500 
22    H7       0.0479   -6.8667   -0.4029 H       1  LIG   0.1641   0.1500 
23    H8      -1.5667   -5.0699   -0.8777 H       1  LIG   0.1476   0.1500 
24    H9      -0.8429   -2.7108   -0.8546 H       1  LIG   0.1644   0.1500 
@<TRIPOS>BOND
1     1     6     ar
2     1     2     ar
3     1     18    1
4     2     3     ar
5     2     19    1
6     3     4     ar
7     3     20    1
8     4     5     ar
9     5     6     ar
10    5     7     1
11    6     21    1
12    7     12    ar
13    7     8     ar
14    8     9     ar
15    8     22    1
16    9     10    ar
17    9     23    1
18    10    11    ar
19    10    24    1
20    11    12    ar
21    11    13    1
22    13    14    2
23    13    15    1
24    15    16    1
25    15    17    1
@<TRIPOS>SUBSTRUCTURE
1   LIG    1    
 
########## Number      : 676
########## Name        : ZINC00005575
########## Description : AM1BCC_CHARGES =   0.0001 ORIGINAL_CHARGES =   0.0000

@<TRIPOS>MOLECULE
ZINC00005575
31    31    1     0     0    
SMALL
USER_CHARGES
****
****
@<TRIPOS>ATOM
1     C1       3.9924   -6.2660    1.8082 C.3     1  LIG  -0.0873   0.0000 
2     C2       2.9778   -6.9352    0.8495 C.3     1  LIG   0.1782   0.2700 
3     C3       2.2304   -5.8047    0.1051 C.3     1  LIG  -0.1087   0.0000 
4     C4       1.4285   -6.3117   -1.0911 C.3     1  LIG   0.1406   0.2800 
5     C5       2.3464   -7.0787   -2.0385 C.3     1  LIG  -0.0706   0.0000 
6     C6       3.0964   -8.2374   -1.3419 C.3     1  LIG   0.1741   0.2700 
7     N1       3.7525   -7.7319   -0.1209 N.3     1  LIG  -0.4800  -0.6400 
8     O1       4.3704   -8.8436    0.5731 O.3     1  LIG  -0.4221  -0.3000 
9     C7       2.1441   -9.4336   -1.1333 C.3     1  LIG  -0.1108   0.0000 
10    C8       4.2150   -8.7085   -2.3027 C.3     1  LIG  -0.0866   0.0000 
11    O2       0.8744   -5.2043   -1.7966 O.3     1  LIG  -0.5994  -0.6800 
12    C9       1.9890   -7.7363    1.7222 C.3     1  LIG  -0.1115   0.0000 
13    H1       5.3079   -8.6014    0.4786 H       1  LIG   0.4160   0.4000 
14    H2       0.3034   -4.7188   -1.1769 H       1  LIG   0.3986   0.4000 
15    H3       3.4896   -5.5692    2.4893 H       1  LIG   0.0353   0.0000 
16    H4       4.5188   -7.0037    2.4248 H       1  LIG   0.0420   0.0000 
17    H5       4.7476   -5.6939    1.2557 H       1  LIG   0.0440   0.0000 
18    H6       1.5635   -5.2637    0.7897 H       1  LIG   0.0434   0.0000 
19    H7       2.9445   -5.0476   -0.2510 H       1  LIG   0.0654   0.0000 
20    H8       0.5938   -6.9412   -0.7683 H       1  LIG   0.0350   0.0000 
21    H9       1.7624   -7.4497   -2.8914 H       1  LIG   0.0594   0.0000 
22    H10      3.0657   -6.3705   -2.4756 H       1  LIG   0.0661   0.0000 
23    H11      2.6293  -10.2534   -0.5926 H       1  LIG   0.0548   0.0000 
24    H12      1.2329   -9.1688   -0.5966 H       1  LIG   0.0352   0.0000 
25    H13      1.8217   -9.8397   -2.1001 H       1  LIG   0.0382   0.0000 
26    H14      4.7536   -9.5774   -1.9072 H       1  LIG   0.0409   0.0000 
27    H15      3.8019   -8.9953   -3.2771 H       1  LIG   0.0377   0.0000 
28    H16      4.9499   -7.9142   -2.4814 H       1  LIG   0.0438   0.0000 
29    H17      1.5725   -7.0994    2.5125 H       1  LIG   0.0358   0.0000 
30    H18      1.1364   -8.1212    1.1623 H       1  LIG   0.0358   0.0000 
31    H19      2.4755   -8.5812    2.2215 H       1  LIG   0.0568   0.0000 
@<TRIPOS>BOND
1     1     2     1
2     1     15    1
3     1     16    1
4     1     17    1
5     2     7     1
6     2     3     1
7     2     12    1
8     3     4     1
9     3     18    1
10    3     19    1
11    4     5     1
12    4     11    1
13    4     20    1
14    5     6     1
15    5     21    1
16    5     22    1
17    6     7     1
18    6     9     1
19    6     10    1
20    7     8     1
21    8     13    1
22    9     23    1
23    9     24    1
24    9     25    1
25    10    26    1
26    10    27    1
27    10    28    1
28    11    14    1
29    12    29    1
30    12    30    1
31    12    31    1
@<TRIPOS>SUBSTRUCTURE
1   LIG    1    
 
########## Number      : 677
########## Name        : ZINC00005584
########## Description : AM1BCC_CHARGES =   0.0001 ORIGINAL_CHARGES =   0.0000

@<TRIPOS>MOLECULE
ZINC00005584
48    51    1     0     0    
SMALL
USER_CHARGES
****
****
@<TRIPOS>ATOM
1     C1       5.1056    4.2255   -0.5076 C.3     1  LIG  -0.0955   0.0000 
2     C2       4.3047    4.8809   -1.6667 C.3     1  LIG  -0.0328   0.0000 
3     C3       2.7971    4.8239   -1.2831 C.3     1  LIG  -0.0731   0.0000 
4     C4       2.2745    6.0214   -0.4824 C.3     1  LIG  -0.1810   0.0610 
5     C5       3.3371    6.8347    0.2066 C.2     1  LIG   0.4746   0.5090 
6     O1       3.2162    7.3218    1.3207 O.2     1  LIG  -0.4726  -0.5700 
7     C6       4.5922    7.1166   -0.5869 C.2     1  LIG   0.4743   0.5090 
8     C7       4.7150    6.3689   -1.8926 C.3     1  LIG  -0.1529   0.0610 
9     C8       6.1332    6.5398   -2.4873 C.3     1  LIG  -0.0699   0.0000 
10    C9       6.3736    5.6742   -3.7379 C.3     1  LIG  -0.0715   0.0000 
11    C10      6.0279    4.2168   -3.4117 C.3     1  LIG  -0.0468   0.0000 
12    C11      4.5339    4.1358   -3.0263 C.3     1  LIG  -0.0545   0.0000 
13    C12      4.0871    2.6589   -3.0610 C.3     1  LIG  -0.0722   0.0000 
14    C13      4.1302    2.1132   -4.5157 C.3     1  LIG  -0.0603   0.0000 
15    C14      5.1803    2.8012   -5.4219 C.3     1  LIG  -0.1472   0.0610 
16    C15      6.3618    3.1996   -4.5206 C.3     1  LIG  -0.0573   0.0000 
17    C16      7.4965    3.4364   -5.5172 C.3     1  LIG  -0.0724   0.0000 
18    C17      7.3523    2.2288   -6.4755 C.3     1  LIG  -0.1887   0.0610 
19    C18      5.8681    1.8785   -6.3889 C.2     1  LIG   0.5732   0.4480 
20    O2       5.3278    0.9963   -7.0398 O.2     1  LIG  -0.5182  -0.5700 
21    C19      4.5544    3.9488   -6.2424 C.3     1  LIG  -0.0829   0.0000 
22    O3       5.3841    7.9419   -0.1588 O.2     1  LIG  -0.4724  -0.5700 
23    H1       4.0394    6.8103   -2.6470 H       1  LIG   0.0746   0.0000 
24    H2       4.9415    3.1440   -0.4701 H       1  LIG   0.0454   0.0000 
25    H3       6.1823    4.3973   -0.5803 H       1  LIG   0.0468   0.0000 
26    H4       4.7997    4.6117    0.4706 H       1  LIG   0.0410   0.0000 
27    H5       2.1783    4.7537   -2.1876 H       1  LIG   0.0514   0.0000 
28    H6       2.5894    3.9035   -0.7214 H       1  LIG   0.0561   0.0000 
29    H7       1.7369    6.7047   -1.1511 H       1  LIG   0.0682   0.0000 
30    H8       1.5544    5.6737    0.2668 H       1  LIG   0.0784   0.0000 
31    H9       6.2964    7.5931   -2.7487 H       1  LIG   0.0585   0.0000 
32    H10      6.8919    6.2983   -1.7318 H       1  LIG   0.0547   0.0000 
33    H11      5.7697    6.0512   -4.5697 H       1  LIG   0.0440   0.0000 
34    H12      7.4255    5.7691   -4.0292 H       1  LIG   0.0490   0.0000 
35    H13      6.6814    3.9853   -2.5531 H       1  LIG   0.0531   0.0000 
36    H14      3.8914    4.6137   -3.7792 H       1  LIG   0.0506   0.0000 
37    H15      4.7452    2.0456   -2.4340 H       1  LIG   0.0443   0.0000 
38    H16      3.0717    2.5292   -2.6730 H       1  LIG   0.0447   0.0000 
39    H17      4.3099    1.0315   -4.4664 H       1  LIG   0.0572   0.0000 
40    H18      3.1329    2.2221   -4.9610 H       1  LIG   0.0492   0.0000 
41    H19      6.7291    2.3322   -3.9308 H       1  LIG   0.0486   0.0000 
42    H20      7.3751    4.3761   -6.0660 H       1  LIG   0.0504   0.0000 
43    H21      8.4804    3.4490   -5.0380 H       1  LIG   0.0526   0.0000 
44    H22      7.6326    2.4948   -7.4969 H       1  LIG   0.0762   0.0000 
45    H23      7.9366    1.3757   -6.1189 H       1  LIG   0.0758   0.0000 
46    H24      3.7195    3.5647   -6.8420 H       1  LIG   0.0477   0.0000 
47    H25      4.1699    4.7860   -5.6653 H       1  LIG   0.0438   0.0000 
48    H26      5.2686    4.3656   -6.9620 H       1  LIG   0.0379   0.0000 
@<TRIPOS>BOND
1     1     2     1
2     1     24    1
3     1     25    1
4     1     26    1
5     2     8     1
6     2     12    1
7     2     3     1
8     3     4     1
9     3     27    1
10    3     28    1
11    4     5     1
12    4     29    1
13    4     30    1
14    5     6     2
15    5     7     1
16    7     8     1
17    7     22    2
18    8     9     1
19    8     23    1
20    9     10    1
21    9     31    1
22    9     32    1
23    10    11    1
24    10    33    1
25    10    34    1
26    11    16    1
27    11    12    1
28    11    35    1
29    12    13    1
30    12    36    1
31    13    14    1
32    13    37    1
33    13    38    1
34    14    15    1
35    14    39    1
36    14    40    1
37    15    19    1
38    15    16    1
39    15    21    1
40    16    17    1
41    16    41    1
42    17    18    1
43    17    42    1
44    17    43    1
45    18    19    1
46    18    44    1
47    18    45    1
48    19    20    2
49    21    46    1
50    21    47    1
51    21    48    1
@<TRIPOS>SUBSTRUCTURE
1   LIG    1    
 
########## Number      : 678
########## Name        : ZINC00005588
########## Description : AM1BCC_CHARGES =  -0.0001 ORIGINAL_CHARGES =   0.0000

@<TRIPOS>MOLECULE
ZINC00005588
25    27    1     0     0    
SMALL
USER_CHARGES
****
****
@<TRIPOS>ATOM
1     C1      -2.3752    0.5260    2.1612 C.ar    1  LIG  -0.1196  -0.1500 
2     C2      -1.1069   -0.0349    2.0622 C.ar    1  LIG  -0.1150  -0.1500 
3     C3      -0.0445    0.7307    1.5831 C.ar    1  LIG  -0.0983  -0.1500 
4     C4      -0.2405    2.0663    1.2012 C.ar    1  LIG  -0.0101   0.1015 
5     C5      -1.5108    2.6399    1.3200 C.ar    1  LIG  -0.0843   0.0862 
6     C6      -2.5786    1.8557    1.7921 C.ar    1  LIG  -0.0828  -0.1500 
7     C7      -1.7798    4.0635    0.9764 C.2     1  LIG   0.4394   0.3538 
8     S1      -2.5293    5.1140    2.0654 S.2     1  LIG  -0.4631  -0.3800 
9     N1      -1.5243    4.5299   -0.2997 N.pl3   1  LIG  -0.3970  -0.5470 
10    C8      -0.6728    4.0315   -1.3104 C.ar    1  LIG   0.0701   0.1170 
11    C9      -1.0001    4.3939   -2.6271 C.ar    1  LIG  -0.1577  -0.1500 
12    C10     -0.2182    3.9719   -3.7022 C.ar    1  LIG  -0.0928  -0.1500 
13    C11      0.9177    3.2050   -3.4724 C.ar    1  LIG  -0.1444  -0.1500 
14    C12      1.2807    2.8773   -2.1666 C.ar    1  LIG  -0.0732  -0.1500 
15    C13      0.4975    3.2923   -1.0769 C.ar    1  LIG  -0.0528   0.1015 
16    S2       1.1434    2.9676    0.5558 S.3     1  LIG  -0.1240  -0.2030 
17    H1      -2.0548    5.3594   -0.5560 H       1  LIG   0.3432   0.3700 
18    H2      -3.2070   -0.0699    2.5260 H       1  LIG   0.1413   0.1500 
19    H3      -0.9448   -1.0695    2.3505 H       1  LIG   0.1394   0.1500 
20    H4       0.9369    0.2678    1.5025 H       1  LIG   0.1485   0.1500 
21    H5      -3.5831    2.2644    1.8730 H       1  LIG   0.1590   0.1500 
22    H6      -1.8847    4.9936   -2.8313 H       1  LIG   0.1425   0.1500 
23    H7      -0.4955    4.2448   -4.7163 H       1  LIG   0.1399   0.1500 
24    H8       1.5329    2.8787   -4.3060 H       1  LIG   0.1415   0.1500 
25    H9       2.1951    2.3085   -2.0096 H       1  LIG   0.1502   0.1500 
@<TRIPOS>BOND
1     1     6     ar
2     1     2     ar
3     1     18    1
4     2     3     ar
5     2     19    1
6     3     4     ar
7     3     20    1
8     4     16    1
9     4     5     ar
10    5     6     ar
11    5     7     1
12    6     21    1
13    7     8     2
14    7     9     1
15    9     10    1
16    9     17    1
17    10    15    ar
18    10    11    ar
19    11    12    ar
20    11    22    1
21    12    13    ar
22    12    23    1
23    13    14    ar
24    13    24    1
25    14    15    ar
26    14    25    1
27    15    16    1
@<TRIPOS>SUBSTRUCTURE
1   LIG    1    
 
########## Number      : 679
########## Name        : ZINC00005600
########## Description : AM1BCC_CHARGES =  -0.0000 ORIGINAL_CHARGES =   0.0000

@<TRIPOS>MOLECULE
ZINC00005600
33    35    1     0     0    
SMALL
USER_CHARGES
****
****
@<TRIPOS>ATOM
1     C1       6.4469  -10.7343   -1.1544 C.3     1  LIG   0.1116   0.2800 
2     O1       7.0573  -10.1751    0.0027 O.3     1  LIG  -0.3233  -0.3625 
3     C2       6.3952   -9.1430    0.6118 C.ar    1  LIG   0.1463   0.0825 
4     C3       5.1836   -8.5898    0.1971 C.ar    1  LIG  -0.2115  -0.1500 
5     C4       4.6095   -7.5316    0.9125 C.ar    1  LIG  -0.0602  -0.1500 
6     C5       5.2321   -7.0108    2.0565 C.ar    1  LIG  -0.1142   0.0284 
7     C6       6.4534   -7.5678    2.4594 C.ar    1  LIG  -0.0582  -0.1500 
8     C7       7.0258   -8.6245    1.7455 C.ar    1  LIG  -0.1643  -0.1500 
9     C8       4.6467   -5.8857    2.8120 C.2     1  LIG   0.1895   0.0483 
10    C9       3.3350   -5.8219    3.0819 C.2     1  LIG  -0.3112  -0.1356 
11    C10      2.8036   -4.6782    3.8498 C.2     1  LIG   0.5977   0.4694 
12    O2       1.6082   -4.6090    4.1005 O.2     1  LIG  -0.5245  -0.5700 
13    C11      3.7857   -3.6591    4.2788 C.ar    1  LIG  -0.2769   0.0862 
14    C12      3.4237   -2.5204    5.0095 C.ar    1  LIG   0.2412   0.0825 
15    C13      4.3927   -1.5887    5.3912 C.ar    1  LIG  -0.2939  -0.1500 
16    C14      5.7233   -1.7997    5.0401 C.ar    1  LIG   0.2174   0.0825 
17    C15      6.0997   -2.9264    4.3140 C.ar    1  LIG  -0.2919  -0.1500 
18    C16      5.1265   -3.8542    3.9349 C.ar    1  LIG   0.2158   0.0825 
19    O3       5.5702   -4.9401    3.2215 O.3     1  LIG  -0.2254  -0.1592 
20    O4       6.6467   -0.8705    5.4282 O.3     1  LIG  -0.4876  -0.5325 
21    O5       2.1195   -2.3041    5.3593 O.3     1  LIG  -0.4494  -0.5325 
22    H1       7.5229   -1.1512    5.1131 H       1  LIG   0.4286   0.4500 
23    H2       2.0562   -1.4725    5.8587 H       1  LIG   0.4235   0.4500 
24    H3       7.0922  -11.5410   -1.5152 H       1  LIG   0.0706   0.0000 
25    H4       5.4715  -11.1704   -0.9146 H       1  LIG   0.0365   0.0000 
26    H5       6.3637   -9.9916   -1.9547 H       1  LIG   0.0363   0.0000 
27    H6       4.6574   -8.9529   -0.6803 H       1  LIG   0.1436   0.1500 
28    H7       3.6710   -7.1158    0.5517 H       1  LIG   0.1439   0.1500 
29    H8       6.9725   -7.1932    3.3390 H       1  LIG   0.1491   0.1500 
30    H9       7.9719   -9.0417    2.0826 H       1  LIG   0.1550   0.1500 
31    H10      2.6246   -6.5797    2.7718 H       1  LIG   0.1682   0.1500 
32    H11      4.1195   -0.7029    5.9581 H       1  LIG   0.1597   0.1500 
33    H12      7.1389   -3.0883    4.0414 H       1  LIG   0.1580   0.1500 
@<TRIPOS>BOND
1     1     2     1
2     1     24    1
3     1     25    1
4     1     26    1
5     2     3     1
6     3     8     ar
7     3     4     ar
8     4     5     ar
9     4     27    1
10    5     6     ar
11    5     28    1
12    6     7     ar
13    6     9     1
14    7     8     ar
15    7     29    1
16    8     30    1
17    9     19    1
18    9     10    2
19    10    11    1
20    10    31    1
21    11    12    2
22    11    13    1
23    13    18    ar
24    13    14    ar
25    14    15    ar
26    14    21    1
27    15    16    ar
28    15    32    1
29    16    17    ar
30    16    20    1
31    17    18    ar
32    17    33    1
33    18    19    1
34    20    22    1
35    21    23    1
@<TRIPOS>SUBSTRUCTURE
1   LIG    1    
 
########## Number      : 680
########## Name        : ZINC00005774
########## Description : AM1BCC_CHARGES =  -0.0001 ORIGINAL_CHARGES =   0.0000

@<TRIPOS>MOLECULE
ZINC00005774
16    16    1     0     0    
SMALL
USER_CHARGES
****
****
@<TRIPOS>ATOM
1     C1       5.8936   -9.4428   -2.3996 C.ar    1  LIG  -0.1585  -0.1500 
2     C2       5.9736   -9.7292   -1.0360 C.ar    1  LIG  -0.0588  -0.1500 
3     C3       4.8454   -9.5651   -0.2282 C.ar    1  LIG  -0.2116   0.0862 
4     C4       3.6378   -9.1174   -0.7708 C.ar    1  LIG  -0.0293  -0.1500 
5     C5       3.5714   -8.8342   -2.1371 C.ar    1  LIG  -0.2112   0.0862 
6     C6       4.6939   -8.9948   -2.9544 C.ar    1  LIG  -0.0411  -0.1500 
7     C7       2.2952   -8.3623   -2.7037 C.2     1  LIG   0.5763   0.4238 
8     O1       2.1655   -8.0958   -3.8914 O.2     1  LIG  -0.5242  -0.5700 
9     C8       4.9515   -9.8733    1.2092 C.2     1  LIG   0.5763   0.4238 
10    O2       4.0044   -9.7526    1.9752 O.2     1  LIG  -0.5244  -0.5700 
11    H1       6.7684   -9.5688   -3.0319 H       1  LIG   0.1442   0.1500 
12    H2       6.9160  -10.0770   -0.6211 H       1  LIG   0.1384   0.1500 
13    H3       2.7626   -8.9912   -0.1387 H       1  LIG   0.1575   0.1500 
14    H4       4.6497   -8.7766   -4.0181 H       1  LIG   0.1591   0.1500 
15    H5       1.4517   -8.2589   -2.0003 H       1  LIG   0.0053   0.0600 
16    H6       5.9349  -10.2218    1.5676 H       1  LIG   0.0019   0.0600 
@<TRIPOS>BOND
1     1     6     ar
2     1     2     ar
3     1     11    1
4     2     3     ar
5     2     12    1
6     3     4     ar
7     3     9     1
8     4     5     ar
9     4     13    1
10    5     6     ar
11    5     7     1
12    6     14    1
13    7     8     2
14    7     15    1
15    9     10    2
16    9     16    1
@<TRIPOS>SUBSTRUCTURE
1   LIG    1    
 
########## Number      : 681
########## Name        : ZINC00005826
########## Description : AM1BCC_CHARGES =   0.0002 ORIGINAL_CHARGES =   0.0000

@<TRIPOS>MOLECULE
ZINC00005826
42    43    1     0     0    
SMALL
USER_CHARGES
****
****
@<TRIPOS>ATOM
1     C1       6.9126  -11.6074   -0.2671 C.3     1  LIG  -0.0449   0.1435 
2     C2       6.5640  -10.3305    0.4351 C.ar    1  LIG  -0.1221  -0.1435 
3     C3       6.2169   -9.1902   -0.2933 C.ar    1  LIG  -0.0926  -0.1500 
4     C4       5.8604   -8.0060    0.3629 C.ar    1  LIG  -0.1902  -0.1500 
5     C5       5.8305   -7.9301    1.7619 C.ar    1  LIG   0.1477   0.1000 
6     C6       6.1668   -9.0883    2.4801 C.ar    1  LIG  -0.1869  -0.1500 
7     C7       6.5237  -10.2741    1.8297 C.ar    1  LIG  -0.0928  -0.1500 
8     N1       5.4842   -6.7840    2.4597 N.pl3   1  LIG  -0.7402  -0.8691 
9     C8       5.1182   -5.5343    1.8230 C.3     1  LIG   0.2379   0.5126 
10    C9       4.8003   -4.4922    2.8688 C.ar    1  LIG  -0.0444  -0.1435 
11    C10      3.4919   -4.3645    3.3618 C.ar    1  LIG  -0.2064  -0.1500 
12    C11      3.1919   -3.4201    4.3461 C.ar    1  LIG   0.1384   0.0825 
13    C12      4.2277   -2.6178    4.8515 C.ar    1  LIG   0.0416   0.0825 
14    C13      5.5399   -2.7196    4.3619 C.ar    1  LIG   0.1386   0.0825 
15    C14      5.8186   -3.6704    3.3775 C.ar    1  LIG  -0.2233  -0.1500 
16    O1       6.4557   -1.8570    4.9065 O.3     1  LIG  -0.3096  -0.3625 
17    C15      7.7917   -1.9376    4.4255 C.3     1  LIG   0.1109   0.2800 
18    O2       3.9360   -1.6612    5.7986 O.3     1  LIG  -0.3104  -0.3625 
19    C16      4.0897   -2.2062    7.1100 C.3     1  LIG   0.1164   0.2800 
20    O3       1.9466   -3.2022    4.8761 O.3     1  LIG  -0.3101  -0.3625 
21    C17      0.8792   -3.9998    4.3789 C.3     1  LIG   0.1100   0.2800 
22    H1       5.4971   -6.8263    3.4730 H       1  LIG   0.4049   0.4000 
23    H2       7.3932  -11.4053   -1.2302 H       1  LIG   0.0391   0.0000 
24    H3       7.6150  -12.2013    0.3272 H       1  LIG   0.0390   0.0000 
25    H4       6.0081  -12.1986   -0.4404 H       1  LIG   0.0425   0.0000 
26    H5       6.2211   -9.2110   -1.3805 H       1  LIG   0.1287   0.1500 
27    H6       5.6039   -7.1452   -0.2492 H       1  LIG   0.1307   0.1500 
28    H7       6.1509   -9.0782    3.5683 H       1  LIG   0.1305   0.1500 
29    H8       6.7700  -11.1508    2.4236 H       1  LIG   0.1294   0.1500 
30    H9       5.9356   -5.1704    1.1880 H       1  LIG   0.0321   0.0000 
31    H10      4.2438   -5.6725    1.1747 H       1  LIG   0.0612   0.0000 
32    H11      2.7246   -5.0171    2.9549 H       1  LIG   0.1500   0.1500 
33    H12      6.8230   -3.7944    2.9826 H       1  LIG   0.1422   0.1500 
34    H13      8.3831   -1.1853    4.9562 H       1  LIG   0.0702   0.0000 
35    H14      8.2302   -2.9175    4.6410 H       1  LIG   0.0309   0.0000 
36    H15      7.8415   -1.7060    3.3565 H       1  LIG   0.0373   0.0000 
37    H16      3.8497   -1.4178    7.8296 H       1  LIG   0.0600   0.0000 
38    H17      3.3995   -3.0400    7.2785 H       1  LIG   0.0313   0.0000 
39    H18      5.1217   -2.5262    7.2902 H       1  LIG   0.0305   0.0000 
40    H19     -0.0343   -3.6965    4.8994 H       1  LIG   0.0696   0.0000 
41    H20      0.7238   -3.8294    3.3085 H       1  LIG   0.0376   0.0000 
42    H21      1.0466   -5.0606    4.5926 H       1  LIG   0.0349   0.0000 
@<TRIPOS>BOND
1     1     2     1
2     1     23    1
3     1     24    1
4     1     25    1
5     2     7     ar
6     2     3     ar
7     3     4     ar
8     3     26    1
9     4     5     ar
10    4     27    1
11    5     6     ar
12    5     8     1
13    6     7     ar
14    6     28    1
15    7     29    1
16    8     9     1
17    8     22    1
18    9     10    1
19    9     30    1
20    9     31    1
21    10    15    ar
22    10    11    ar
23    11    12    ar
24    11    32    1
25    12    13    ar
26    12    20    1
27    13    14    ar
28    13    18    1
29    14    15    ar
30    14    16    1
31    15    33    1
32    16    17    1
33    17    34    1
34    17    35    1
35    17    36    1
36    18    19    1
37    19    37    1
38    19    38    1
39    19    39    1
40    20    21    1
41    21    40    1
42    21    41    1
43    21    42    1
@<TRIPOS>SUBSTRUCTURE
1   LIG    1    
 
########## Number      : 682
########## Name        : ZINC00005869
########## Description : AM1BCC_CHARGES =   0.0001 ORIGINAL_CHARGES =   0.0000

@<TRIPOS>MOLECULE
ZINC00005869
17    18    1     0     0    
SMALL
USER_CHARGES
****
****
@<TRIPOS>ATOM
1     C1       4.5347   -6.4174   -1.8751 C.ar    1  LIG  -0.1835  -0.1500 
2     C2       4.8008   -7.7528   -1.5521 C.ar    1  LIG  -0.0086  -0.1500 
3     C3       3.9246   -8.4265   -0.6849 C.ar    1  LIG  -0.2301   0.0000 
4     C4       3.8435   -9.7239   -0.1345 C.2     1  LIG   0.3549   0.1388 
5     N1       2.7857   -9.8815    0.6625 N.2     1  LIG  -0.4921  -0.7068 
6     N2       2.1870   -8.6809    0.6228 N.pl3   1  LIG   0.0028   0.2996 
7     C5       2.8181   -7.7557   -0.1689 C.ar    1  LIG  -0.0022  -0.1516 
8     C6       2.5347   -6.4158   -0.4821 C.ar    1  LIG  -0.2015   0.1330 
9     C7       3.4216   -5.7565   -1.3510 C.ar    1  LIG  -0.0215  -0.1500 
10    N3       1.3811   -5.6899    0.0456 N.pl3   1  LIG   0.3255   0.9070 
11    O1       0.6574   -6.2818    0.8577 O.2     1  LIG  -0.2358  -0.5200 
12    O2       1.1918   -4.5308   -0.3469 O.3     1  LIG  -0.1997  -0.5200 
13    H1       1.3404   -8.5501    1.1636 H       1  LIG   0.3569   0.2700 
14    H2       5.2069   -5.8866   -2.5452 H       1  LIG   0.1504   0.1500 
15    H3       5.6707   -8.2526   -1.9681 H       1  LIG   0.1502   0.1500 
16    H4       4.5131  -10.5595   -0.2832 H       1  LIG   0.0635   0.1500 
17    H5       3.2668   -4.7182   -1.6369 H       1  LIG   0.1709   0.1500 
@<TRIPOS>BOND
1     1     9     ar
2     1     2     ar
3     1     14    1
4     2     3     ar
5     2     15    1
6     3     7     ar
7     3     4     1
8     4     5     2
9     4     16    1
10    5     6     1
11    6     7     1
12    6     13    1
13    7     8     ar
14    8     9     ar
15    8     10    1
16    9     17    1
17    10    11    2
18    10    12    1
@<TRIPOS>SUBSTRUCTURE
1   LIG    1    
 
########## Number      : 683
########## Name        : ZINC00005878
########## Description : AM1BCC_CHARGES =  -0.0000 ORIGINAL_CHARGES =   0.0000

@<TRIPOS>MOLECULE
ZINC00005878
15    15    1     0     0    
SMALL
USER_CHARGES
****
****
@<TRIPOS>ATOM
1     C1       6.4128   -9.4342    0.3882 C.ar    1  LIG  -0.2551  -0.1500 
2     C2       5.4041   -8.5373    0.0496 C.ar    1  LIG  -0.0390  -0.1500 
3     C3       4.2959   -8.9799   -0.6766 C.ar    1  LIG  -0.2600   0.0862 
4     C4       4.2467  -10.3264   -1.0178 C.ar    1  LIG   0.4212   0.1600 
5     N1       5.2126  -11.2225   -0.7034 N.ar    1  LIG  -0.6703  -0.6200 
6     C5       6.2723  -10.7527   -0.0097 C.ar    1  LIG   0.4145   0.1600 
7     C6       3.2251   -8.0146   -1.0213 C.2     1  LIG   0.6767   0.5438 
8     O1       3.1181   -6.9611   -0.4004 O.2     1  LIG  -0.6110  -0.5700 
9     N2       2.3915   -8.3505   -2.0631 N.am    1  LIG  -0.6719  -0.8000 
10    H1       1.6455   -7.7174   -2.3314 H       1  LIG   0.3207   0.3700 
11    H2       2.4903   -9.1867   -2.6264 H       1  LIG   0.3082   0.3700 
12    H3       7.2832   -9.1093    0.9471 H       1  LIG   0.1509   0.1500 
13    H4       5.4984   -7.4977    0.3525 H       1  LIG   0.1669   0.1500 
14    H5       3.4098  -10.7619   -1.5527 H       1  LIG   0.0212   0.1500 
15    H6       7.0319  -11.4900    0.2291 H       1  LIG   0.0270   0.1500 
@<TRIPOS>BOND
1     1     6     ar
2     1     2     ar
3     1     12    1
4     2     3     ar
5     2     13    1
6     3     4     ar
7     3     7     1
8     4     5     ar
9     4     14    1
10    5     6     ar
11    6     15    1
12    7     8     2
13    7     9     am
14    9     10    1
15    9     11    1
@<TRIPOS>SUBSTRUCTURE
1   LIG    1    
 
########## Number      : 684
########## Name        : ZINC00005891
########## Description : AM1BCC_CHARGES =  -0.0002 ORIGINAL_CHARGES =   0.0000

@<TRIPOS>MOLECULE
ZINC00005891
22    22    1     0     0    
SMALL
USER_CHARGES
****
****
@<TRIPOS>ATOM
1     C1       7.4260   -1.7499    2.5775 C.ar    1  LIG  -0.2004  -0.1500 
2     C2       6.2317   -1.4383    1.9338 C.ar    1  LIG  -0.1638  -0.1500 
3     C3       5.1887   -2.3702    1.8548 C.ar    1  LIG   0.0403   0.1000 
4     C4       5.4395   -3.6199    2.4272 C.ar    1  LIG   0.3250   0.3962 
5     N1       6.5926   -3.9538    3.0631 N.ar    1  LIG  -0.5955  -0.6200 
6     C5       7.5545   -3.0111    3.1242 C.ar    1  LIG   0.3551   0.1600 
7     C6       4.4444   -4.7126    2.3830 C.2     1  LIG   0.2559   0.3038 
8     N2       4.6792   -5.8612    2.9347 N.2     1  LIG  -0.3787  -0.5120 
9     N3       3.6712   -6.7609    2.8085 N.pl3   1  LIG  -0.2876  -0.3680 
10    C7       3.7687   -8.0315    3.3434 C.2     1  LIG   0.5478   0.5000 
11    S1       5.0647   -8.6618    4.1945 S.2     1  LIG  -0.4498  -0.3800 
12    N4       2.6508   -8.7992    3.1144 N.pl3   1  LIG  -0.6298  -0.8000 
13    N5       4.0297   -2.0328    1.1754 N.pl3   1  LIG  -0.8162  -0.9000 
14    H1       2.8367   -6.4762    2.3070 H       1  LIG   0.2746   0.3700 
15    H2       2.5988   -9.7524    3.4570 H       1  LIG   0.3345   0.3700 
16    H3       1.8503   -8.4467    2.6028 H       1  LIG   0.2928   0.3700 
17    H4       3.2156   -2.6295    1.1795 H       1  LIG   0.3934   0.4000 
18    H5       3.9119   -1.0889    0.8287 H       1  LIG   0.3945   0.4000 
19    H6       8.2297   -1.0255    2.6444 H       1  LIG   0.1442   0.1500 
20    H7       6.1177   -0.4506    1.4919 H       1  LIG   0.1382   0.1500 
21    H8       8.4628   -3.3081    3.6380 H       1  LIG   0.0295   0.1500 
22    H9       3.4919   -4.5205    1.8624 H       1  LIG  -0.0042   0.0600 
@<TRIPOS>BOND
1     1     6     ar
2     1     2     ar
3     1     19    1
4     2     3     ar
5     2     20    1
6     3     4     ar
7     3     13    1
8     4     5     ar
9     4     7     1
10    5     6     ar
11    6     21    1
12    7     8     2
13    7     22    1
14    8     9     1
15    9     10    1
16    9     14    1
17    10    11    2
18    10    12    1
19    12    15    1
20    12    16    1
21    13    17    1
22    13    18    1
@<TRIPOS>SUBSTRUCTURE
1   LIG    1    
 
########## Number      : 685
########## Name        : ZINC00005913
########## Description : AM1BCC_CHARGES =   0.0000 ORIGINAL_CHARGES =   0.0000

@<TRIPOS>MOLECULE
ZINC00005913
23    24    1     0     0    
SMALL
USER_CHARGES
****
****
@<TRIPOS>ATOM
1     C1       4.3333   -9.4557   -1.2013 C.ar    1  LIG  -0.1192  -0.1500 
2     C2       4.3674   -9.3298    0.1862 C.ar    1  LIG  -0.1317  -0.1500 
3     C3       4.0481   -8.1105    0.7861 C.ar    1  LIG  -0.1094  -0.1500 
4     C4       3.6954   -7.0030    0.0017 C.ar    1  LIG  -0.0905  -0.1435 
5     C5       3.6586   -7.1431   -1.3931 C.ar    1  LIG  -0.1095  -0.1500 
6     C6       3.9783   -8.3634   -1.9906 C.ar    1  LIG  -0.1319  -0.1500 
7     C7       3.3344   -5.6916    0.6484 C.3     1  LIG   0.0234   0.3735 
8     S1       1.5560   -5.5952    1.0091 S.3     1  LIG  -0.1948  -0.2860 
9     C8       1.4363   -4.0076    1.7354 C.2     1  LIG   0.3815   0.4341 
10    N1       2.4667   -3.2099    1.9053 N.2     1  LIG  -0.3248  -0.3381 
11    N2       2.1060   -2.0165    2.4996 N.2     1  LIG  -0.3610  -0.3381 
12    C9       0.8162   -1.9476    2.7608 C.2     1  LIG   0.5523   0.4621 
13    S2      -0.0508   -3.3609    2.2883 S.3     1  LIG  -0.1613  -0.0800 
14    N3       0.1841   -0.9076    3.3355 N.pl3   1  LIG  -0.8810  -0.8840 
15    H1       0.6847   -0.0716    3.6171 H       1  LIG   0.4068   0.4000 
16    H2      -0.8148   -0.9157    3.5104 H       1  LIG   0.3940   0.4000 
17    H3       4.5812  -10.4051   -1.6671 H       1  LIG   0.1336   0.1500 
18    H4       4.6410  -10.1819    0.8020 H       1  LIG   0.1347   0.1500 
19    H5       4.0755   -8.0301    1.8701 H       1  LIG   0.1380   0.1500 
20    H6       3.3796   -6.3017   -2.0229 H       1  LIG   0.1373   0.1500 
21    H7       3.9486   -8.4619   -3.0720 H       1  LIG   0.1345   0.1500 
22    H8       3.9051   -5.5706    1.5766 H       1  LIG   0.0894   0.0000 
23    H9       3.6210   -4.8651   -0.0124 H       1  LIG   0.0896   0.0000 
@<TRIPOS>BOND
1     1     6     ar
2     1     2     ar
3     1     17    1
4     2     3     ar
5     2     18    1
6     3     4     ar
7     3     19    1
8     4     5     ar
9     4     7     1
10    5     6     ar
11    5     20    1
12    6     21    1
13    7     8     1
14    7     22    1
15    7     23    1
16    8     9     1
17    9     13    1
18    9     10    2
19    10    11    1
20    11    12    2
21    12    13    1
22    12    14    1
23    14    15    1
24    14    16    1
@<TRIPOS>SUBSTRUCTURE
1   LIG    1    
 
########## Number      : 686
########## Name        : ZINC00005971
########## Description : AM1BCC_CHARGES =   0.0003 ORIGINAL_CHARGES =   0.0000

@<TRIPOS>MOLECULE
ZINC00005971
25    26    1     0     0    
SMALL
USER_CHARGES
****
****
@<TRIPOS>ATOM
1     C1       6.0968   -8.9607    0.7069 C.3     1  LIG   0.1289   0.2800 
2     O1       5.3178   -7.8366    0.2859 O.3     1  LIG  -0.4508  -0.4300 
3     C2       4.9174   -7.0035    1.2798 C.2     1  LIG   0.5422   0.6338 
4     O2       5.1585   -7.1275    2.4707 O.2     1  LIG  -0.5026  -0.5700 
5     C3       4.1212   -5.8798    0.7294 C.ar    1  LIG   0.3483   0.3962 
6     C4       3.8477   -5.7400   -0.6261 C.ar    1  LIG  -0.1419  -0.1500 
7     C5       3.0855   -4.6434   -1.0536 C.ar    1  LIG  -0.0396   0.0000 
8     C6       2.7892   -4.4696   -2.4169 C.ar    1  LIG  -0.1126  -0.1500 
9     C7       2.0327   -3.3840   -2.8549 C.ar    1  LIG  -0.1082  -0.1500 
10    C8       1.5657   -2.4617   -1.9296 C.ar    1  LIG   0.1198   0.0825 
11    C9       1.8447   -2.6091   -0.5694 C.ar    1  LIG   0.0432   0.0825 
12    C10      2.6115   -3.7056   -0.1072 C.ar    1  LIG  -0.1548   0.0000 
13    C11      2.9538   -3.9562    1.2313 C.ar    1  LIG   0.4031   0.1600 
14    N1       3.6878   -5.0075    1.6650 N.ar    1  LIG  -0.6063  -0.6200 
15    O3       1.3365   -1.6429    0.2596 O.3     1  LIG  -0.5118  -0.5325 
16    O4       0.8259   -1.4063   -2.3874 O.3     1  LIG  -0.4875  -0.5325 
17    H1       1.5783   -1.8251    1.1803 H       1  LIG   0.4345   0.4500 
18    H2       0.5849   -0.8675   -1.6124 H       1  LIG   0.4425   0.4500 
19    H3       6.3533   -9.5471   -0.1794 H       1  LIG   0.0616   0.0000 
20    H4       7.0221   -8.6238    1.1842 H       1  LIG   0.0474   0.0000 
21    H5       5.5167   -9.5906    1.3881 H       1  LIG   0.0483   0.0000 
22    H6       4.2125   -6.4611   -1.3522 H       1  LIG   0.1682   0.1500 
23    H7       3.1482   -5.1843   -3.1553 H       1  LIG   0.1474   0.1500 
24    H8       1.8139   -3.2663   -3.9122 H       1  LIG   0.1613   0.1500 
25    H9       2.6411   -3.2993    2.0368 H       1  LIG   0.0197   0.1500 
@<TRIPOS>BOND
1     1     2     1
2     1     19    1
3     1     20    1
4     1     21    1
5     2     3     1
6     3     4     2
7     3     5     1
8     5     14    ar
9     5     6     ar
10    6     7     ar
11    6     22    1
12    7     12    ar
13    7     8     ar
14    8     9     ar
15    8     23    1
16    9     10    ar
17    9     24    1
18    10    11    ar
19    10    16    1
20    11    12    ar
21    11    15    1
22    12    13    ar
23    13    14    ar
24    13    25    1
25    15    17    1
26    16    18    1
@<TRIPOS>SUBSTRUCTURE
1   LIG    1    
 
########## Number      : 687
########## Name        : ZINC00005988
########## Description : AM1BCC_CHARGES =   0.0001 ORIGINAL_CHARGES =   0.0000

@<TRIPOS>MOLECULE
ZINC00005988
38    43    1     0     0    
SMALL
USER_CHARGES
****
****
@<TRIPOS>ATOM
1     C1      -1.9643   -0.4877   -2.2231 C.ar    1  LIG  -0.1142  -0.1500 
2     C2      -2.8673   -0.6606   -1.1698 C.ar    1  LIG  -0.1152  -0.1500 
3     C3      -3.0810    0.4085   -0.3270 C.ar    1  LIG   0.0644   0.0825 
4     C4      -2.4351    1.6089   -0.5042 C.ar    1  LIG   0.0533   0.0825 
5     C5      -1.5387    1.8085   -1.5348 C.ar    1  LIG  -0.0991  -0.1500 
6     C6      -1.2929    0.7433   -2.4191 C.ar    1  LIG  -0.0586   0.0000 
7     C7      -0.3428    0.9020   -3.5306 C.ar    1  LIG  -0.0060   0.0000 
8     C8      -0.7427    1.3588   -4.8240 C.ar    1  LIG   0.0033   0.0000 
9     C9      -2.0821    1.6942   -5.1361 C.ar    1  LIG  -0.1214  -0.1500 
10    C10     -2.3937    2.1288   -6.4088 C.ar    1  LIG   0.0817   0.0825 
11    C11     -1.4404    2.2464   -7.3855 C.ar    1  LIG   0.0679   0.0825 
12    C12     -0.1197    1.9363   -7.1468 C.ar    1  LIG  -0.1092  -0.1500 
13    C13      0.2459    1.4894   -5.8658 C.ar    1  LIG  -0.0527   0.0000 
14    C14      1.5851    1.1714   -5.6113 C.ar    1  LIG  -0.0207  -0.1500 
15    C15      1.9242    0.7345   -4.3469 C.ar    1  LIG  -0.1767   0.0862 
16    C16      1.0047    0.5988   -3.3302 C.ar    1  LIG  -0.0907  -0.1435 
17    C17      1.6973    0.1128   -2.1160 C.3     1  LIG   0.1688   0.4235 
18    O1       3.0729   -0.0076   -2.5494 O.3     1  LIG  -0.4137  -0.4300 
19    C18      3.2398    0.3513   -3.8586 C.2     1  LIG   0.7343   0.6338 
20    O2       4.2777    0.3509   -4.4897 O.2     1  LIG  -0.5551  -0.5700 
21    O3      -1.9555    2.6898   -8.5640 O.3     1  LIG  -0.3293  -0.3625 
22    C19     -3.3470    2.8385   -8.2156 C.3     1  LIG   0.3205   0.5600 
23    O4      -3.6324    2.4835   -6.8474 O.3     1  LIG  -0.3287  -0.3625 
24    O5      -2.7864    2.5292    0.4348 O.3     1  LIG  -0.3312  -0.3625 
25    C20     -3.7277    1.7719    1.2226 C.3     1  LIG   0.3206   0.5600 
26    O6      -3.9188    0.4245    0.7449 O.3     1  LIG  -0.3308  -0.3625 
27    H1      -1.7816   -1.3205   -2.8998 H       1  LIG   0.1473   0.1500 
28    H2      -3.3792   -1.6052   -1.0252 H       1  LIG   0.1604   0.1500 
29    H3      -1.0409    2.7659   -1.6539 H       1  LIG   0.1637   0.1500 
30    H4      -2.8768    1.6195   -4.3997 H       1  LIG   0.1702   0.1500 
31    H5       0.6130    2.0399   -7.9421 H       1  LIG   0.1632   0.1500 
32    H6       2.3463    1.2624   -6.3812 H       1  LIG   0.1593   0.1500 
33    H7       1.6542    0.8310   -1.2927 H       1  LIG   0.0834   0.0000 
34    H8       1.3457   -0.8727   -1.7987 H       1  LIG   0.0819   0.0000 
35    H9      -3.6397    3.8825   -8.3760 H       1  LIG   0.0787   0.0000 
36    H10     -3.9446    2.1998   -8.8762 H       1  LIG   0.0787   0.0000 
37    H11     -3.3662    1.7297    2.2565 H       1  LIG   0.0753   0.0000 
38    H12     -4.6938    2.2896    1.2085 H       1  LIG   0.0765   0.0000 
@<TRIPOS>BOND
1     1     6     ar
2     1     2     ar
3     1     27    1
4     2     3     ar
5     2     28    1
6     3     26    1
7     3     4     ar
8     4     5     ar
9     4     24    1
10    5     6     ar
11    5     29    1
12    6     7     1
13    7     16    ar
14    7     8     ar
15    8     13    ar
16    8     9     ar
17    9     10    ar
18    9     30    1
19    10    23    1
20    10    11    ar
21    11    12    ar
22    11    21    1
23    12    13    ar
24    12    31    1
25    13    14    ar
26    14    15    ar
27    14    32    1
28    15    19    1
29    15    16    ar
30    16    17    1
31    17    18    1
32    17    33    1
33    17    34    1
34    18    19    1
35    19    20    2
36    21    22    1
37    22    23    1
38    22    35    1
39    22    36    1
40    24    25    1
41    25    26    1
42    25    37    1
43    25    38    1
@<TRIPOS>SUBSTRUCTURE
1   LIG    1    
 
########## Number      : 688
########## Name        : ZINC00006014
########## Description : AM1BCC_CHARGES =  -0.0001 ORIGINAL_CHARGES =   0.0000

@<TRIPOS>MOLECULE
ZINC00006014
40    43    1     0     0    
SMALL
USER_CHARGES
****
****
@<TRIPOS>ATOM
1     C1       4.6618  -11.5888    1.0927 C.ar    1  LIG  -0.1256  -0.1500 
2     C2       5.6924  -10.8586    0.5059 C.ar    1  LIG  -0.1320  -0.1500 
3     C3       5.4981   -9.5161    0.1723 C.ar    1  LIG  -0.1174  -0.1500 
4     C4       4.2698   -8.8820    0.4227 C.ar    1  LIG  -0.0356   0.0000 
5     C5       3.2406   -9.6363    1.0116 C.ar    1  LIG  -0.1081  -0.1500 
6     C6       3.4359  -10.9784    1.3452 C.ar    1  LIG  -0.1356  -0.1500 
7     C7       4.0666   -7.4656    0.0732 C.ar    1  LIG  -0.0614   0.0000 
8     C8       4.1350   -7.0616   -1.2729 C.ar    1  LIG  -0.0774  -0.1500 
9     C9       3.9398   -5.7275   -1.6373 C.ar    1  LIG  -0.1611  -0.1500 
10    C10      3.6737   -4.7698   -0.6633 C.ar    1  LIG  -0.0480  -0.1500 
11    C11      3.6072   -5.1542    0.6768 C.ar    1  LIG  -0.2063   0.0862 
12    C12      3.8019   -6.4830    1.0486 C.ar    1  LIG   0.1538   0.0825 
13    O1       3.7609   -6.8820    2.3625 O.3     1  LIG  -0.2439  -0.1592 
14    C13      3.4958   -5.9661    3.3834 C.2     1  LIG   0.3642   0.1767 
15    C14      3.2876   -4.6656    3.1069 C.2     1  LIG  -0.4121  -0.1356 
16    C15      3.3327   -4.1631    1.7214 C.2     1  LIG   0.6052   0.4694 
17    O2       3.1488   -2.9802    1.4678 O.2     1  LIG  -0.5606  -0.5700 
18    N1       3.4731   -6.5212    4.6758 N.pl3   1  LIG  -0.6480  -0.8382 
19    C16      3.1188   -5.7793    5.8982 C.3     1  LIG   0.1658   0.3691 
20    C17      4.0548   -6.1741    7.0383 C.3     1  LIG   0.1207   0.2800 
21    O3       4.0282   -7.5864    7.2491 O.3     1  LIG  -0.4095  -0.5600 
22    C18      4.4740   -8.2749    6.0797 C.3     1  LIG   0.1202   0.2800 
23    C19      3.5531   -7.9782    4.9008 C.3     1  LIG   0.1639   0.3691 
24    H1       4.8137  -12.6325    1.3521 H       1  LIG   0.1324   0.1500 
25    H2       6.6496  -11.3328    0.3082 H       1  LIG   0.1337   0.1500 
26    H3       6.3200   -8.9649   -0.2799 H       1  LIG   0.1359   0.1500 
27    H4       2.2730   -9.1818    1.2150 H       1  LIG   0.1409   0.1500 
28    H5       2.6298  -11.5462    1.8011 H       1  LIG   0.1333   0.1500 
29    H6       4.3346   -7.7912   -2.0557 H       1  LIG   0.1432   0.1500 
30    H7       3.9940   -5.4383   -2.6832 H       1  LIG   0.1428   0.1500 
31    H8       3.5232   -3.7357   -0.9607 H       1  LIG   0.1633   0.1500 
32    H9       3.0773   -3.9195    3.8615 H       1  LIG   0.1655   0.1500 
33    H10      3.1816   -4.6956    5.7745 H       1  LIG   0.0722   0.0000 
34    H11      2.0832   -6.0256    6.1618 H       1  LIG   0.0477   0.0000 
35    H12      5.0850   -5.8566    6.8363 H       1  LIG   0.0458   0.0000 
36    H13      3.7344   -5.6919    7.9673 H       1  LIG   0.0774   0.0000 
37    H14      5.5094   -7.9874    5.8606 H       1  LIG   0.0461   0.0000 
38    H15      4.4654   -9.3471    6.2995 H       1  LIG   0.0767   0.0000 
39    H16      2.5425   -8.3483    5.1115 H       1  LIG   0.0448   0.0000 
40    H17      3.9288   -8.5201    4.0273 H       1  LIG   0.0870   0.0000 
@<TRIPOS>BOND
1     1     6     ar
2     1     2     ar
3     1     24    1
4     2     3     ar
5     2     25    1
6     3     4     ar
7     3     26    1
8     4     5     ar
9     4     7     1
10    5     6     ar
11    5     27    1
12    6     28    1
13    7     12    ar
14    7     8     ar
15    8     9     ar
16    8     29    1
17    9     10    ar
18    9     30    1
19    10    11    ar
20    10    31    1
21    11    16    1
22    11    12    ar
23    12    13    1
24    13    14    1
25    14    15    2
26    14    18    1
27    15    16    1
28    15    32    1
29    16    17    2
30    18    23    1
31    18    19    1
32    19    20    1
33    19    33    1
34    19    34    1
35    20    21    1
36    20    35    1
37    20    36    1
38    21    22    1
39    22    23    1
40    22    37    1
41    22    38    1
42    23    39    1
43    23    40    1
@<TRIPOS>SUBSTRUCTURE
1   LIG    1    
 
########## Number      : 689
########## Name        : ZINC00006099
########## Description : AM1BCC_CHARGES =   0.0000 ORIGINAL_CHARGES =   0.0000

@<TRIPOS>MOLECULE
ZINC00006099
18    19    1     0     0    
SMALL
USER_CHARGES
****
****
@<TRIPOS>ATOM
1     C1       0.8349    2.6483    1.5214 C.ar    1  LIG  -0.0736  -0.1500 
2     C2      -0.5525    2.7369    1.5257 C.ar    1  LIG  -0.1667  -0.1500 
3     C3      -1.2118    3.2134    0.3973 C.ar    1  LIG  -0.0442  -0.1500 
4     C4      -0.4737    3.6028   -0.7408 C.ar    1  LIG  -0.3166   0.0895 
5     C5       0.9224    3.5163   -0.7521 C.ar    1  LIG   0.4960   0.3100 
6     C6       1.5579    3.0363    0.3895 C.ar    1  LIG  -0.2079  -0.1500 
7     N1       1.6329    3.8818   -1.8236 N.ar    1  LIG  -0.7897  -0.6200 
8     C7       0.9726    4.3395   -2.9027 C.ar    1  LIG   0.9082   0.7200 
9     N2      -0.3597    4.4531   -2.9728 N.ar    1  LIG  -0.6908  -0.6480 
10    N3      -1.0750    4.0874   -1.9003 N.ar    1  LIG   0.7714   0.9985 
11    O1      -2.3297    4.2118   -2.0115 O.3     1  LIG  -0.4572  -0.7500 
12    N4       1.7147    4.7149   -4.0051 N.pl3   1  LIG  -0.9496  -0.9000 
13    H1       2.7211    4.6391   -3.9781 H       1  LIG   0.4560   0.4000 
14    H2       1.2444    5.0619   -4.8285 H       1  LIG   0.4554   0.4000 
15    H3       1.3591    2.2774    2.3978 H       1  LIG   0.1408   0.1500 
16    H4      -1.1172    2.4364    2.4033 H       1  LIG   0.1449   0.1500 
17    H5      -2.2969    3.2811    0.4047 H       1  LIG   0.1646   0.1500 
18    H6       2.6433    2.9582    0.4088 H       1  LIG   0.1590   0.1500 
@<TRIPOS>BOND
1     1     6     ar
2     1     2     ar
3     1     15    1
4     2     3     ar
5     2     16    1
6     3     4     ar
7     3     17    1
8     4     10    ar
9     4     5     ar
10    5     6     ar
11    5     7     ar
12    6     18    1
13    7     8     ar
14    8     9     ar
15    8     12    1
16    9     10    ar
17    10    11    1
18    12    13    1
19    12    14    1
@<TRIPOS>SUBSTRUCTURE
1   LIG    1    
 
########## Number      : 690
########## Name        : ZINC00006256
########## Description : AM1BCC_CHARGES =  -0.0002 ORIGINAL_CHARGES =   0.0000

@<TRIPOS>MOLECULE
ZINC00006256
30    34    1     0     0    
SMALL
USER_CHARGES
****
****
@<TRIPOS>ATOM
1     C1       5.9790   -9.1660    1.9701 C.ar    1  LIG  -0.1048  -0.1500 
2     C2       5.0018   -9.2841    0.9950 C.ar    1  LIG  -0.1373  -0.1500 
3     C3       4.1557   -8.2119    0.7497 C.ar    1  LIG  -0.0755  -0.1500 
4     C4       4.2919   -7.0203    1.4851 C.ar    1  LIG  -0.1575   0.0862 
5     C5       5.2710   -6.8495    2.4890 C.ar    1  LIG   0.0126   0.0000 
6     C6       6.1082   -7.9756    2.6984 C.ar    1  LIG  -0.1260  -0.1500 
7     C7       5.3659   -5.6017    3.2144 C.ar    1  LIG  -0.0092   0.0000 
8     C8       4.4671   -4.5403    2.9142 C.ar    1  LIG  -0.1156   0.0000 
9     C9       4.5080   -3.2854    3.5928 C.ar    1  LIG  -0.0182   0.0000 
10    C10      3.5976   -2.2790    3.2537 C.ar    1  LIG  -0.2061  -0.1500 
11    C11      2.6714   -2.5312    2.2579 C.ar    1  LIG   0.3800   0.1600 
12    N1       2.5898   -3.6953    1.5876 N.ar    1  LIG  -0.6052  -0.6200 
13    C12      3.4814   -4.6566    1.9320 C.ar    1  LIG   0.3672   0.3962 
14    C13      3.3569   -5.9134    1.1743 C.2     1  LIG   0.4792   0.3976 
15    O1       2.4974   -6.0307    0.3097 O.2     1  LIG  -0.4936  -0.5700 
16    C14      5.4549   -3.0625    4.5931 C.ar    1  LIG  -0.1152  -0.1500 
17    C15      6.3273   -4.0819    4.8898 C.ar    1  LIG   0.0777   0.0825 
18    C16      6.2908   -5.2982    4.2352 C.ar    1  LIG   0.0907   0.0825 
19    O2       7.2630   -6.1275    4.7224 O.3     1  LIG  -0.3342  -0.3625 
20    C17      7.8906   -5.3125    5.7258 C.3     1  LIG   0.3207   0.5600 
21    O3       7.3012   -4.0093    5.8387 O.3     1  LIG  -0.3290  -0.3625 
22    H1       6.6484   -9.9977    2.1726 H       1  LIG   0.1371   0.1500 
23    H2       4.8990  -10.2048    0.4290 H       1  LIG   0.1404   0.1500 
24    H3       3.3922   -8.3143   -0.0175 H       1  LIG   0.1604   0.1500 
25    H4       6.8972   -7.9641    3.4431 H       1  LIG   0.1558   0.1500 
26    H5       3.6036   -1.3138    3.7517 H       1  LIG   0.1494   0.1500 
27    H6       1.9484   -1.7765    1.9658 H       1  LIG   0.0323   0.1500 
28    H7       5.5120   -2.1193    5.1277 H       1  LIG   0.1645   0.1500 
29    H8       7.8111   -5.8217    6.6931 H       1  LIG   0.0796   0.0000 
30    H9       8.9516   -5.2003    5.4750 H       1  LIG   0.0796   0.0000 
@<TRIPOS>BOND
1     1     6     ar
2     1     2     ar
3     1     22    1
4     2     3     ar
5     2     23    1
6     3     4     ar
7     3     24    1
8     4     14    1
9     4     5     ar
10    5     6     ar
11    5     7     1
12    6     25    1
13    7     18    ar
14    7     8     ar
15    8     13    ar
16    8     9     ar
17    9     10    ar
18    9     16    ar
19    10    11    ar
20    10    26    1
21    11    12    ar
22    11    27    1
23    12    13    ar
24    13    14    1
25    14    15    2
26    16    17    ar
27    16    28    1
28    17    21    1
29    17    18    ar
30    18    19    1
31    19    20    1
32    20    21    1
33    20    29    1
34    20    30    1
@<TRIPOS>SUBSTRUCTURE
1   LIG    1    
 
########## Number      : 691
########## Name        : ZINC00006297
########## Description : AM1BCC_CHARGES =  -0.0002 ORIGINAL_CHARGES =  -0.0000

@<TRIPOS>MOLECULE
ZINC00006297
28    31    1     0     0    
SMALL
USER_CHARGES
****
****
@<TRIPOS>ATOM
1     C1       2.3673    4.0894   -4.1076 C.ar    1  LIG  -0.1300  -0.1500 
2     C2       2.1549    3.6331   -2.8205 C.ar    1  LIG  -0.1211  -0.1500 
3     C3       1.8232    2.2995   -2.6019 C.ar    1  LIG  -0.0949  -0.1500 
4     C4       1.7027    1.4257   -3.7044 C.ar    1  LIG  -0.0738   0.0400 
5     C5       1.8952    1.8470   -5.0216 C.ar    1  LIG  -0.0323   0.0000 
6     C6       2.2438    3.2168   -5.1955 C.ar    1  LIG  -0.1012  -0.1500 
7     C7       1.6988    0.7497   -5.9863 C.ar    1  LIG  -0.0885   0.0000 
8     C8       1.7732    0.7153   -7.4197 C.ar    1  LIG   0.2005   0.1000 
9     C9       1.5510   -0.5036   -8.0992 C.ar    1  LIG  -0.2262  -0.1500 
10    C10      1.2696   -1.6906   -7.4316 C.ar    1  LIG   0.0414   0.0000 
11    C11      1.0593   -2.8899   -8.1239 C.ar    1  LIG  -0.2428  -0.1500 
12    C12      0.7777   -4.0358   -7.3973 C.ar    1  LIG   0.3927   0.1600 
13    N1       0.6901   -4.0745   -6.0524 N.ar    1  LIG  -0.6708  -0.6200 
14    C13      0.8951   -2.9058   -5.4022 C.ar    1  LIG   0.4295   0.1600 
15    C14      1.1878   -1.6842   -6.0324 C.ar    1  LIG  -0.1661   0.0000 
16    C15      1.4000   -0.4546   -5.3253 C.ar    1  LIG  -0.0077   0.0400 
17    S1       1.3232   -0.2325   -3.6202 S.3     1  LIG   0.0452  -0.0800 
18    N2       1.9895    1.8390   -8.2225 N.pl3   1  LIG  -0.8174  -0.9000 
19    H1       2.3814    1.7041   -9.1467 H       1  LIG   0.3928   0.4000 
20    H2       2.0885    2.7549   -7.8196 H       1  LIG   0.3975   0.4000 
21    H3       2.6339    5.1288   -4.2789 H       1  LIG   0.1338   0.1500 
22    H4       2.2516    4.3120   -1.9781 H       1  LIG   0.1361   0.1500 
23    H5       1.6636    1.9399   -1.5886 H       1  LIG   0.1399   0.1500 
24    H6       2.4353    3.6326   -6.1774 H       1  LIG   0.1392   0.1500 
25    H7       1.5976   -0.5072   -9.1890 H       1  LIG   0.1373   0.1500 
26    H8       1.1122   -2.9372   -9.2074 H       1  LIG   0.1431   0.1500 
27    H9       0.6093   -4.9835   -7.8987 H       1  LIG   0.0217   0.1500 
28    H10      0.8129   -2.9917   -4.3230 H       1  LIG   0.0219   0.1500 
@<TRIPOS>BOND
1     1     6     ar
2     1     2     ar
3     1     21    1
4     2     3     ar
5     2     22    1
6     3     4     ar
7     3     23    1
8     4     17    1
9     4     5     ar
10    5     6     ar
11    5     7     1
12    6     24    1
13    7     16    ar
14    7     8     ar
15    8     9     ar
16    8     18    1
17    9     10    ar
18    9     25    1
19    10    15    ar
20    10    11    ar
21    11    12    ar
22    11    26    1
23    12    13    ar
24    12    27    1
25    13    14    ar
26    14    15    ar
27    14    28    1
28    15    16    ar
29    16    17    1
30    18    19    1
31    18    20    1
@<TRIPOS>SUBSTRUCTURE
1   LIG    1    
 
########## Number      : 692
########## Name        : ZINC00006299
########## Description : AM1BCC_CHARGES =  -0.0002 ORIGINAL_CHARGES =  -0.0000

@<TRIPOS>MOLECULE
ZINC00006299
26    28    1     0     0    
SMALL
USER_CHARGES
****
****
@<TRIPOS>ATOM
1     C1       1.2302   -3.6455   -2.5786 C.ar    1  LIG  -0.1313  -0.1500 
2     C2       0.3135   -2.8691   -1.8779 C.ar    1  LIG  -0.1234  -0.1500 
3     C3       0.7433   -1.8913   -0.9769 C.ar    1  LIG  -0.0899  -0.1500 
4     C4       2.1246   -1.7131   -0.7982 C.ar    1  LIG  -0.0895   0.0400 
5     C5       3.0619   -2.4792   -1.4898 C.ar    1  LIG   0.0900   0.2272 
6     C6       2.6035   -3.4610   -2.3938 C.ar    1  LIG  -0.0779  -0.1500 
7     N1       4.3852   -2.1850   -1.2041 N.2     1  LIG  -0.5341  -0.5653 
8     C7       4.4716   -1.2095   -0.3214 C.2     1  LIG   0.4469   0.3251 
9     S1       2.9525   -0.6088    0.2260 S.3     1  LIG  -0.0594  -0.0800 
10    C8       5.7489   -0.6822    0.1933 C.ar    1  LIG  -0.1752   0.0530 
11    C9       6.9148   -1.4488    0.0387 C.ar    1  LIG  -0.0390  -0.1500 
12    C10      8.1514   -0.9894    0.5062 C.ar    1  LIG  -0.2073  -0.1500 
13    C11      8.2594    0.2468    1.1460 C.ar    1  LIG   0.1692   0.1000 
14    C12      7.1070    1.0237    1.2864 C.ar    1  LIG  -0.2005  -0.1500 
15    C13      5.8677    0.5667    0.8200 C.ar    1  LIG  -0.0698  -0.1500 
16    N2       9.4880    0.7142    1.5845 N.pl3   1  LIG  -0.8284  -0.9000 
17    H1      10.3082    0.1256    1.5258 H       1  LIG   0.3998   0.4000 
18    H2       9.5506    1.5864    2.0924 H       1  LIG   0.3991   0.4000 
19    H3       0.8783   -4.4017   -3.2753 H       1  LIG   0.1350   0.1500 
20    H4      -0.7515   -3.0238   -2.0316 H       1  LIG   0.1345   0.1500 
21    H5       0.0231   -1.2885   -0.4321 H       1  LIG   0.1383   0.1500 
22    H6       3.3140   -4.0709   -2.9442 H       1  LIG   0.1502   0.1500 
23    H7       6.8784   -2.4217   -0.4481 H       1  LIG   0.1537   0.1500 
24    H8       9.0315   -1.6125    0.3648 H       1  LIG   0.1363   0.1500 
25    H9       7.1608    2.0005    1.7622 H       1  LIG   0.1356   0.1500 
26    H10      5.0095    1.2208    0.9517 H       1  LIG   0.1369   0.1500 
@<TRIPOS>BOND
1     1     6     ar
2     1     2     ar
3     1     19    1
4     2     3     ar
5     2     20    1
6     3     4     ar
7     3     21    1
8     4     9     1
9     4     5     ar
10    5     6     ar
11    5     7     1
12    6     22    1
13    7     8     2
14    8     9     1
15    8     10    1
16    10    15    ar
17    10    11    ar
18    11    12    ar
19    11    23    1
20    12    13    ar
21    12    24    1
22    13    14    ar
23    13    16    1
24    14    15    ar
25    14    25    1
26    15    26    1
27    16    17    1
28    16    18    1
@<TRIPOS>SUBSTRUCTURE
1   LIG    1    
 
########## Number      : 693
########## Name        : ZINC00006310
########## Description : AM1BCC_CHARGES =  -0.0000 ORIGINAL_CHARGES =   0.0000

@<TRIPOS>MOLECULE
ZINC00006310
29    30    1     0     0    
SMALL
USER_CHARGES
****
****
@<TRIPOS>ATOM
1     C1       5.3012   -8.3070   -0.2521 C.ar    1  LIG  -0.2339  -0.1500 
2     C2       4.0985   -7.6030   -0.1605 C.ar    1  LIG   0.0205  -0.1500 
3     C3       4.0618   -6.2673   -0.5515 C.ar    1  LIG  -0.4332  -0.0090 
4     C4       5.2028   -5.6308   -1.0374 C.ar    1  LIG   0.0366  -0.1500 
5     C5       6.3991   -6.3449   -1.1242 C.ar    1  LIG  -0.2347  -0.1500 
6     C6       6.4645   -7.6864   -0.7262 C.ar    1  LIG   0.2244   0.1000 
7     N1       7.6507   -8.3964   -0.8307 N.pl3   1  LIG  -0.8431  -0.9000 
8     S1       2.5558   -5.3489   -0.4387 S.o2    1  LIG   1.4604   1.3180 
9     O1       2.2650   -4.9003   -1.7874 O.2     1  LIG  -0.6708  -0.6500 
10    O2       1.5917   -6.1437    0.2987 O.2     1  LIG  -0.6702  -0.6500 
11    C7       2.8735   -3.9274    0.5626 C.ar    1  LIG  -0.4430  -0.0090 
12    C8       3.3768   -4.1103    1.8496 C.ar    1  LIG   0.0405  -0.1500 
13    C9       3.6377   -2.9942    2.6464 C.ar    1  LIG  -0.2417  -0.1500 
14    C10      3.4037   -1.6992    2.1662 C.ar    1  LIG   0.2407   0.1000 
15    C11      2.8866   -1.5421    0.8734 C.ar    1  LIG  -0.2402  -0.1500 
16    C12      2.6217   -2.6510    0.0668 C.ar    1  LIG   0.0254  -0.1500 
17    N2       3.6479   -0.5945    2.9676 N.pl3   1  LIG  -0.8600  -0.9000 
18    H1       8.4965   -7.9376   -1.1414 H       1  LIG   0.4130   0.4000 
19    H2       7.7037   -9.3546   -0.5116 H       1  LIG   0.4136   0.4000 
20    H3       4.0522   -0.7085    3.8874 H       1  LIG   0.4227   0.4000 
21    H4       3.5098    0.3401    2.6071 H       1  LIG   0.4231   0.4000 
22    H5       5.3244   -9.3512    0.0518 H       1  LIG   0.1383   0.1500 
23    H6       3.2152   -8.1126    0.2120 H       1  LIG   0.1608   0.1500 
24    H7       5.1787   -4.5917   -1.3536 H       1  LIG   0.1398   0.1500 
25    H8       7.2855   -5.8442   -1.5071 H       1  LIG   0.1373   0.1500 
26    H9       3.5661   -5.1037    2.2463 H       1  LIG   0.1388   0.1500 
27    H10      4.0273   -3.1428    3.6509 H       1  LIG   0.1370   0.1500 
28    H11      2.6856   -0.5470    0.4828 H       1  LIG   0.1375   0.1500 
29    H12      2.2222   -2.4952   -0.9307 H       1  LIG   0.1604   0.1500 
@<TRIPOS>BOND
1     1     6     ar
2     1     2     ar
3     1     22    1
4     2     3     ar
5     2     23    1
6     3     4     ar
7     3     8     1
8     4     5     ar
9     4     24    1
10    5     6     ar
11    5     25    1
12    6     7     1
13    7     18    1
14    7     19    1
15    8     9     2
16    8     10    2
17    8     11    1
18    11    16    ar
19    11    12    ar
20    12    13    ar
21    12    26    1
22    13    14    ar
23    13    27    1
24    14    15    ar
25    14    17    1
26    15    16    ar
27    15    28    1
28    16    29    1
29    17    20    1
30    17    21    1
@<TRIPOS>SUBSTRUCTURE
1   LIG    1    
 
########## Number      : 694
########## Name        : ZINC00006329
########## Description : AM1BCC_CHARGES =  -0.0003 ORIGINAL_CHARGES =   0.0000

@<TRIPOS>MOLECULE
ZINC00006329
31    33    1     0     0    
SMALL
USER_CHARGES
****
****
@<TRIPOS>ATOM
1     C1       8.5443   -9.8659    0.7758 C.3     1  LIG  -0.0572   0.1435 
2     C2       7.1322   -9.3822    0.9226 C.ar    1  LIG  -0.0882  -0.1435 
3     C3       6.0759  -10.1018    0.3538 C.ar    1  LIG  -0.0927  -0.1500 
4     C4       4.7669   -9.6352    0.4634 C.ar    1  LIG  -0.1446  -0.1500 
5     C5       4.5011   -8.4402    1.1329 C.ar    1  LIG  -0.0721  -0.1500 
6     C6       5.5477   -7.6989    1.6961 C.ar    1  LIG  -0.1600   0.0862 
7     C7       6.8631   -8.1734    1.5822 C.ar    1  LIG  -0.0740  -0.1500 
8     C8       5.2292   -6.4277    2.3938 C.2     1  LIG   0.7329   0.5138 
9     N1       4.0280   -5.9585    2.4825 N.2     1  LIG  -0.6489  -0.6290 
10    C9       3.8615   -4.7548    3.1656 C.ar    1  LIG   0.2384   0.1790 
11    C10      2.5815   -4.2031    3.2888 C.ar    1  LIG  -0.1325  -0.1500 
12    C11      2.3874   -2.9986    3.9679 C.ar    1  LIG  -0.0321  -0.1500 
13    C12      3.4900   -2.3466    4.5268 C.ar    1  LIG  -0.2060   0.1330 
14    C13      4.7766   -2.8813    4.4147 C.ar    1  LIG   0.0152  -0.1500 
15    C14      4.9461   -4.0894    3.7289 C.ar    1  LIG  -0.2307   0.0862 
16    C15      6.2822   -4.6873    3.5852 C.2     1  LIG   0.7386   0.6338 
17    O1       7.2750   -4.1488    4.0574 O.2     1  LIG  -0.5411  -0.5700 
18    O2       6.3510   -5.8608    2.9044 O.3     1  LIG  -0.4516  -0.3000 
19    N2       3.2939   -1.0885    5.2381 N.pl3   1  LIG   0.3174   0.9070 
20    O3       2.2731   -0.4358    4.9810 O.2     1  LIG  -0.2049  -0.5200 
21    O4       4.1597   -0.7495    6.0561 O.3     1  LIG  -0.1991  -0.5200 
22    H1       8.5788  -10.9580    0.7025 H       1  LIG   0.0470   0.0000 
23    H2       8.9949   -9.4372   -0.1246 H       1  LIG   0.0525   0.0000 
24    H3       9.1468   -9.5806    1.6446 H       1  LIG   0.0513   0.0000 
25    H4       6.2661  -11.0310   -0.1776 H       1  LIG   0.1397   0.1500 
26    H5       3.9512  -10.2024    0.0235 H       1  LIG   0.1418   0.1500 
27    H6       3.4699   -8.1030    1.2010 H       1  LIG   0.1583   0.1500 
28    H7       7.6969   -7.6150    2.0013 H       1  LIG   0.1612   0.1500 
29    H8       1.7255   -4.7141    2.8539 H       1  LIG   0.1712   0.1500 
30    H9       1.3801   -2.5995    4.0508 H       1  LIG   0.1774   0.1500 
31    H10      5.6364   -2.3727    4.8432 H       1  LIG   0.1925   0.1500 
@<TRIPOS>BOND
1     1     2     1
2     1     22    1
3     1     23    1
4     1     24    1
5     2     7     ar
6     2     3     ar
7     3     4     ar
8     3     25    1
9     4     5     ar
10    4     26    1
11    5     6     ar
12    5     27    1
13    6     7     ar
14    6     8     1
15    7     28    1
16    8     18    1
17    8     9     2
18    9     10    1
19    10    15    ar
20    10    11    ar
21    11    12    ar
22    11    29    1
23    12    13    ar
24    12    30    1
25    13    14    ar
26    13    19    1
27    14    15    ar
28    14    31    1
29    15    16    1
30    16    17    2
31    16    18    1
32    19    20    2
33    19    21    1
@<TRIPOS>SUBSTRUCTURE
1   LIG    1    
 
########## Number      : 695
########## Name        : ZINC00006364
########## Description : AM1BCC_CHARGES =  -0.0001 ORIGINAL_CHARGES =  -0.0000

@<TRIPOS>MOLECULE
ZINC00006364
16    16    1     0     0    
SMALL
USER_CHARGES
****
****
@<TRIPOS>ATOM
1     C1       5.9939   -9.3941   -1.2104 C.ar    1  LIG  -0.1871  -0.1500 
2     C2       4.9950  -10.2815   -1.6187 C.ar    1  LIG  -0.0959  -0.1500 
3     C3       3.7209  -10.1751   -1.0743 C.ar    1  LIG   0.0696   0.0825 
4     C4       3.4416   -9.1938   -0.1284 C.ar    1  LIG   0.0771   0.0825 
5     C5       4.4375   -8.3066    0.2807 C.ar    1  LIG  -0.2325  -0.1500 
6     C6       5.7257   -8.3952   -0.2635 C.ar    1  LIG   0.1375   0.1000 
7     N1       6.7270   -7.5287    0.1487 N.pl3   1  LIG  -0.8128  -0.9000 
8     O1       2.1780   -9.1205    0.3884 O.3     1  LIG  -0.5168  -0.5325 
9     O2       2.7592  -11.0530   -1.4873 O.3     1  LIG  -0.4969  -0.5325 
10    H1       6.5258   -6.7885    0.8076 H       1  LIG   0.3853   0.4000 
11    H2       7.6471   -7.5748   -0.2683 H       1  LIG   0.3876   0.4000 
12    H3       2.1476   -8.3899    1.0297 H       1  LIG   0.4283   0.4500 
13    H4       1.9423  -10.8315   -1.0051 H       1  LIG   0.4330   0.4500 
14    H5       6.9888   -9.4877   -1.6398 H       1  LIG   0.1364   0.1500 
15    H6       5.2191  -11.0476   -2.3552 H       1  LIG   0.1522   0.1500 
16    H7       4.2163   -7.5433    1.0225 H       1  LIG   0.1349   0.1500 
@<TRIPOS>BOND
1     1     6     ar
2     1     2     ar
3     1     14    1
4     2     3     ar
5     2     15    1
6     3     4     ar
7     3     9     1
8     4     5     ar
9     4     8     1
10    5     6     ar
11    5     16    1
12    6     7     1
13    7     10    1
14    7     11    1
15    8     12    1
16    9     13    1
@<TRIPOS>SUBSTRUCTURE
1   LIG    1    
 
########## Number      : 696
########## Name        : ZINC00006421
########## Description : AM1BCC_CHARGES =   0.0000 ORIGINAL_CHARGES =  -0.0000

@<TRIPOS>MOLECULE
ZINC00006421
26    27    1     0     0    
SMALL
USER_CHARGES
****
****
@<TRIPOS>ATOM
1     C1       4.0059   -8.2449   -2.7289 C.3     1  LIG  -0.1748   0.0610 
2     C2       2.9986   -8.2459   -1.6112 C.2     1  LIG   0.6562   0.5690 
3     O1       2.6519   -9.2797   -1.0469 O.2     1  LIG  -0.6076  -0.5700 
4     N1       2.5516   -6.9743   -1.2997 N.am    1  LIG  -0.5673  -0.7301 
5     C3       1.5928   -6.7280   -0.2321 C.3     1  LIG   0.1471   0.4436 
6     C4       2.3130   -6.6312    1.1312 C.3     1  LIG  -0.1005   0.0000 
7     C5       1.5106   -5.6207    1.9639 C.3     1  LIG  -0.0377   0.1435 
8     C6       0.9366   -4.7419    0.8952 C.ar    1  LIG  -0.0783  -0.1435 
9     C7       0.9790   -5.3719   -0.3563 C.ar    1  LIG  -0.1104  -0.1435 
10    C8       0.4395   -4.7582   -1.4764 C.ar    1  LIG  -0.1038  -0.1500 
11    C9      -0.1238   -3.4880   -1.3339 C.ar    1  LIG  -0.1361  -0.1500 
12    C10     -0.1578   -2.8568   -0.0810 C.ar    1  LIG  -0.1241  -0.1500 
13    C11      0.3682   -3.4878    1.0478 C.ar    1  LIG  -0.1215  -0.1500 
14    H1       2.9407   -6.1781   -1.7960 H       1  LIG   0.3083   0.3700 
15    H2       4.1179   -9.2587   -3.1232 H       1  LIG   0.0782   0.0000 
16    H3       3.6765   -7.5899   -3.5405 H       1  LIG   0.0626   0.0000 
17    H4       4.9698   -7.8965   -2.3483 H       1  LIG   0.0558   0.0000 
18    H5       0.8631   -7.5504   -0.2037 H       1  LIG   0.0981   0.0000 
19    H6       2.3983   -7.6036    1.6278 H       1  LIG   0.0594   0.0000 
20    H7       3.3366   -6.2518    0.9988 H       1  LIG   0.0473   0.0000 
21    H8       0.7050   -6.1154    2.5161 H       1  LIG   0.0584   0.0000 
22    H9       2.1564   -5.0716    2.6549 H       1  LIG   0.0541   0.0000 
23    H10      0.4474   -5.2478   -2.4446 H       1  LIG   0.1391   0.1500 
24    H11     -0.5477   -2.9858   -2.1995 H       1  LIG   0.1317   0.1500 
25    H12     -0.6067   -1.8714    0.0118 H       1  LIG   0.1312   0.1500 
26    H13      0.3261   -3.0053    2.0185 H       1  LIG   0.1346   0.1500 
@<TRIPOS>BOND
1     1     2     1
2     1     15    1
3     1     16    1
4     1     17    1
5     2     3     2
6     2     4     am
7     4     5     1
8     4     14    1
9     5     9     1
10    5     6     1
11    5     18    1
12    6     7     1
13    6     19    1
14    6     20    1
15    7     8     1
16    7     21    1
17    7     22    1
18    8     13    ar
19    8     9     ar
20    9     10    ar
21    10    11    ar
22    10    23    1
23    11    12    ar
24    11    24    1
25    12    13    ar
26    12    25    1
27    13    26    1
@<TRIPOS>SUBSTRUCTURE
1   LIG    1    
 
########## Number      : 697
########## Name        : ZINC00006427
########## Description : AM1BCC_CHARGES =   0.0001 ORIGINAL_CHARGES =   0.0000

@<TRIPOS>MOLECULE
ZINC00006427
33    35    1     0     0    
SMALL
USER_CHARGES
****
****
@<TRIPOS>ATOM
1     C1       2.1012   -5.4375    2.6155 C.3     1  LIG   0.0724   0.3001 
2     N1       3.2991   -4.9150    1.9602 N.am    1  LIG  -0.3844  -0.4771 
3     C2       4.4839   -5.7277    1.9633 C.ar    1  LIG   0.0837   0.1170 
4     C3       4.3568   -7.1301    2.0194 C.ar    1  LIG  -0.1619  -0.1500 
5     C4       5.4731   -7.9703    1.9787 C.ar    1  LIG  -0.0908  -0.1500 
6     C5       6.7446   -7.4211    1.8861 C.ar    1  LIG  -0.0083   0.1770 
7     C6       6.9093   -6.0397    1.8586 C.ar    1  LIG  -0.0776  -0.1500 
8     C7       5.7880   -5.1915    1.9229 C.ar    1  LIG  -0.2022   0.0862 
9     C8       6.0560   -3.7252    2.0158 C.2     1  LIG   0.5388   0.2776 
10    N2       5.4233   -2.8310    1.3340 N.2     1  LIG  -0.5781  -0.6960 
11    C9       4.3712   -3.2804    0.4439 C.3     1  LIG   0.0396   0.3070 
12    C10      3.1997   -3.6793    1.3098 C.2     1  LIG   0.6884   0.5690 
13    O1       2.2086   -2.9465    1.3676 O.2     1  LIG  -0.6059  -0.5700 
14    C11      7.1084   -3.2426    2.9584 C.ar    1  LIG  -0.1463   0.0862 
15    C12      7.9389   -2.1835    2.5738 C.ar    1  LIG  -0.0861  -0.1500 
16    C13      8.9174   -1.7141    3.4508 C.ar    1  LIG  -0.1396  -0.1500 
17    C14      9.0624   -2.2922    4.7117 C.ar    1  LIG  -0.1134  -0.1500 
18    C15      8.2262   -3.3383    5.1011 C.ar    1  LIG  -0.1373  -0.1500 
19    C16      7.2455   -3.8135    4.2293 C.ar    1  LIG  -0.1051  -0.1500 
20    Cl1      8.1217   -8.4512    1.8195 Cl      1  LIG  -0.0816  -0.1770 
21    H1       2.3671   -5.9315    3.5554 H       1  LIG   0.0505   0.0000 
22    H2       1.3978   -4.6323    2.8481 H       1  LIG   0.0761   0.0000 
23    H3       1.6006   -6.1370    1.9390 H       1  LIG   0.0326   0.0000 
24    H4       3.3805   -7.6073    2.0575 H       1  LIG   0.1480   0.1500 
25    H5       5.3303   -9.0474    2.0069 H       1  LIG   0.1530   0.1500 
26    H6       7.9128   -5.6239    1.7961 H       1  LIG   0.1632   0.1500 
27    H7       4.0631   -2.4443   -0.1935 H       1  LIG   0.1071   0.0000 
28    H8       4.6765   -4.0870   -0.2316 H       1  LIG   0.0696   0.0000 
29    H9       7.8413   -1.7226    1.5943 H       1  LIG   0.1494   0.1500 
30    H10      9.5666   -0.8962    3.1513 H       1  LIG   0.1362   0.1500 
31    H11      9.8240   -1.9238    5.3931 H       1  LIG   0.1342   0.1500 
32    H12      8.3352   -3.7805    6.0874 H       1  LIG   0.1356   0.1500 
33    H13      6.5930   -4.6161    4.5618 H       1  LIG   0.1403   0.1500 
@<TRIPOS>BOND
1     1     2     1
2     1     21    1
3     1     22    1
4     1     23    1
5     2     12    am
6     2     3     1
7     3     8     ar
8     3     4     ar
9     4     5     ar
10    4     24    1
11    5     6     ar
12    5     25    1
13    6     7     ar
14    6     20    1
15    7     8     ar
16    7     26    1
17    8     9     1
18    9     10    2
19    9     14    1
20    10    11    1
21    11    12    1
22    11    27    1
23    11    28    1
24    12    13    2
25    14    19    ar
26    14    15    ar
27    15    16    ar
28    15    29    1
29    16    17    ar
30    16    30    1
31    17    18    ar
32    17    31    1
33    18    19    ar
34    18    32    1
35    19    33    1
@<TRIPOS>SUBSTRUCTURE
1   LIG    1    
 
########## Number      : 698
########## Name        : ZINC00006468
########## Description : AM1BCC_CHARGES =  -0.0001 ORIGINAL_CHARGES =  -0.0000

@<TRIPOS>MOLECULE
ZINC00006468
21    22    1     0     0    
SMALL
USER_CHARGES
****
****
@<TRIPOS>ATOM
1     C1       7.2378   -1.9201    1.8416 C.3     1  LIG  -0.1388   0.0610 
2     C2       6.3901   -3.0416    2.3680 C.2     1  LIG   0.4966   0.4490 
3     N1       6.2826   -3.1179    3.7390 N.am    1  LIG  -0.4974  -0.4900 
4     C3       5.5415   -4.0889    4.3875 C.2     1  LIG   0.7074   0.5438 
5     O1       5.4381   -4.1673    5.6059 O.2     1  LIG  -0.6196  -0.5700 
6     C4       4.8663   -5.0486    3.4898 C.ar    1  LIG  -0.1515   0.0862 
7     C5       4.0833   -6.0826    4.0141 C.ar    1  LIG  -0.0965  -0.1500 
8     C6       3.4546   -6.9778    3.1483 C.ar    1  LIG  -0.1167  -0.1500 
9     C7       3.6067   -6.8414    1.7690 C.ar    1  LIG  -0.1324  -0.1500 
10    C8       4.3902   -5.8060    1.2615 C.ar    1  LIG   0.1421   0.0825 
11    C9       5.0315   -4.8947    2.1071 C.ar    1  LIG   0.1045   0.1790 
12    N2       5.8136   -3.8637    1.5501 N.2     1  LIG  -0.6440  -0.6290 
13    O2       4.5160   -5.7043   -0.0984 O.3     1  LIG  -0.4960  -0.5325 
14    H1       6.7627   -2.4384    4.3202 H       1  LIG   0.3366   0.3700 
15    H2       5.0895   -4.9366   -0.2756 H       1  LIG   0.4438   0.4500 
16    H3       7.6572   -1.3115    2.6466 H       1  LIG   0.0520   0.0000 
17    H4       8.0550   -2.3382    1.2465 H       1  LIG   0.0757   0.0000 
18    H5       6.6278   -1.2843    1.1932 H       1  LIG   0.0756   0.0000 
19    H6       3.9552   -6.2019    5.0865 H       1  LIG   0.1604   0.1500 
20    H7       2.8452   -7.7829    3.5494 H       1  LIG   0.1426   0.1500 
21    H8       3.1157   -7.5403    1.0980 H       1  LIG   0.1555   0.1500 
@<TRIPOS>BOND
1     1     2     1
2     1     16    1
3     1     17    1
4     1     18    1
5     2     12    2
6     2     3     1
7     3     4     am
8     3     14    1
9     4     5     2
10    4     6     1
11    6     11    ar
12    6     7     ar
13    7     8     ar
14    7     19    1
15    8     9     ar
16    8     20    1
17    9     10    ar
18    9     21    1
19    10    11    ar
20    10    13    1
21    11    12    1
22    13    15    1
@<TRIPOS>SUBSTRUCTURE
1   LIG    1    
 
########## Number      : 699
########## Name        : ZINC00006561
########## Description : AM1BCC_CHARGES =   0.0002 ORIGINAL_CHARGES =   0.0000

@<TRIPOS>MOLECULE
ZINC00006561
35    37    1     0     0    
SMALL
USER_CHARGES
****
****
@<TRIPOS>ATOM
1     C1       3.3484  -10.9957   -1.7344 C.ar    1  LIG  -0.1426  -0.1500 
2     C2       4.4195  -11.3334   -2.5617 C.ar    1  LIG  -0.0975  -0.1500 
3     C3       5.7215  -11.0266   -2.1732 C.ar    1  LIG  -0.1638  -0.1500 
4     C4       5.9430  -10.3853   -0.9567 C.ar    1  LIG   0.1456   0.1900 
5     C5       4.8833  -10.0458   -0.1094 C.ar    1  LIG  -0.1148  -0.1435 
6     C6       3.5778  -10.3527   -0.5157 C.ar    1  LIG  -0.0944  -0.1500 
7     C7       5.1276   -9.3324    1.1933 C.3     1  LIG  -0.1009   0.2045 
8     C8       4.9344   -7.8286    1.0866 C.2     1  LIG   0.6606   0.5690 
9     O1       5.1546   -7.2159    0.0461 O.2     1  LIG  -0.5426  -0.5700 
10    N1       4.5704   -7.2763    2.3086 N.am    1  LIG  -0.4728  -0.5390 
11    C9       4.1791   -5.9794    2.6039 C.2     1  LIG  -0.0141   0.1234 
12    C10      3.5293   -5.1063    1.8142 C.2     1  LIG  -0.0520   0.1544 
13    C11      3.1974   -3.7216    2.2624 C.2     1  LIG   0.5791   0.4694 
14    O2       2.6140   -2.9232    1.5366 O.2     1  LIG  -0.4858  -0.5700 
15    C12      3.5919   -3.3188    3.6211 C.ar    1  LIG  -0.1259   0.0862 
16    C13      3.3287   -2.0156    4.0632 C.ar    1  LIG  -0.0837  -0.1500 
17    C14      3.6896   -1.6288    5.3541 C.ar    1  LIG  -0.1095  -0.1500 
18    C15      4.3107   -2.5392    6.2058 C.ar    1  LIG  -0.1173  -0.1500 
19    C16      4.5728   -3.8375    5.7677 C.ar    1  LIG  -0.0791  -0.1500 
20    C17      4.2127   -4.2271    4.4709 C.ar    1  LIG  -0.1353   0.0862 
21    C18      4.4961   -5.5976    4.0188 C.2     1  LIG   0.5680   0.4694 
22    O3       4.9939   -6.4110    4.7925 O.2     1  LIG  -0.5235  -0.5700 
23    Cl1      2.8570   -5.5034    0.2648 Cl      1  LIG  -0.0285  -0.1400 
24    F1       7.2028  -10.0912   -0.6022 F       1  LIG  -0.1374  -0.1900 
25    H1       4.7744   -7.8446    3.1297 H       1  LIG   0.3217   0.3700 
26    H2       2.3326  -11.2308   -2.0398 H       1  LIG   0.1390   0.1500 
27    H3       4.2378  -11.8322   -3.5093 H       1  LIG   0.1393   0.1500 
28    H4       6.5594  -11.2824   -2.8142 H       1  LIG   0.1510   0.1500 
29    H5       2.7305  -10.0911    0.1137 H       1  LIG   0.1393   0.1500 
30    H6       4.4546   -9.7456    1.9552 H       1  LIG   0.0690   0.0000 
31    H7       6.1480   -9.5169    1.5503 H       1  LIG   0.0938   0.0000 
32    H8       2.8430   -1.2895    3.4160 H       1  LIG   0.1641   0.1500 
33    H9       3.4850   -0.6178    5.6952 H       1  LIG   0.1451   0.1500 
34    H10      4.5913   -2.2383    7.2114 H       1  LIG   0.1449   0.1500 
35    H11      5.0593   -4.5313    6.4487 H       1  LIG   0.1612   0.1500 
@<TRIPOS>BOND
1     1     6     ar
2     1     2     ar
3     1     26    1
4     2     3     ar
5     2     27    1
6     3     4     ar
7     3     28    1
8     4     5     ar
9     4     24    1
10    5     6     ar
11    5     7     1
12    6     29    1
13    7     8     1
14    7     30    1
15    7     31    1
16    8     9     2
17    8     10    am
18    10    11    1
19    10    25    1
20    11    21    1
21    11    12    2
22    12    13    1
23    12    23    1
24    13    14    2
25    13    15    1
26    15    20    ar
27    15    16    ar
28    16    17    ar
29    16    32    1
30    17    18    ar
31    17    33    1
32    18    19    ar
33    18    34    1
34    19    20    ar
35    19    35    1
36    20    21    1
37    21    22    2
@<TRIPOS>SUBSTRUCTURE
1   LIG    1    
 
########## Number      : 700
########## Name        : ZINC00006576
########## Description : AM1BCC_CHARGES =   0.0001 ORIGINAL_CHARGES =  -0.0000

@<TRIPOS>MOLECULE
ZINC00006576
39    41    1     0     0    
SMALL
USER_CHARGES
****
****
@<TRIPOS>ATOM
1     C1       6.6574  -10.6077   -0.6440 C.3     1  LIG  -0.1450   0.1800 
2     C2       5.2040  -10.8793   -0.6468 C.2     1  LIG   0.3430  -0.0400 
3     C3       4.1155  -10.3277    0.0154 C.2     1  LIG  -0.2923  -0.0860 
4     C4       2.9756  -11.0234   -0.4902 C.2     1  LIG  -0.2477  -0.1500 
5     C5       3.4464  -11.9557   -1.3817 C.2     1  LIG   0.2430  -0.0100 
6     O1       4.7955  -11.8761   -1.4832 O.3     1  LIG  -0.3571  -0.2800 
7     C6       4.1167   -9.2321    0.9752 C.2     1  LIG   0.4615   0.5260 
8     S1       4.9583   -9.5270    2.3853 S.2     1  LIG  -0.4428  -0.3800 
9     N1       3.3858   -8.1376    0.5426 N.pl3   1  LIG  -0.3899  -0.5470 
10    C7       3.0784   -6.8886    1.1415 C.ar    1  LIG   0.0430   0.1170 
11    C8       2.3505   -5.9885    0.3453 C.ar    1  LIG  -0.1463  -0.1500 
12    C9       1.9859   -4.7252    0.8205 C.ar    1  LIG  -0.1110  -0.1500 
13    C10      2.3409   -4.3347    2.1095 C.ar    1  LIG   0.0350   0.1770 
14    C11      3.0628   -5.2184    2.9151 C.ar    1  LIG  -0.0842   0.0862 
15    C12      3.4233   -6.4915    2.4340 C.ar    1  LIG  -0.1033  -0.1500 
16    C13      3.4355   -4.8689    4.2989 C.2     1  LIG   0.6499   0.6338 
17    O2       2.6461   -4.4791    5.1410 O.2     1  LIG  -0.5208  -0.5700 
18    O3       4.7722   -5.0578    4.4302 O.3     1  LIG  -0.4209  -0.4300 
19    C14      5.3407   -4.8042    5.7273 C.3     1  LIG   0.1678   0.3750 
20    C15      5.2808   -6.0495    6.5506 C.3     1  LIG  -0.1652  -0.1950 
21    C16      6.2542   -7.1695    6.3009 C.3     1  LIG  -0.1198  -0.2000 
22    C17      6.3601   -6.3481    7.5553 C.3     1  LIG  -0.1257  -0.2000 
23    Cl1      1.8934   -2.7516    2.6314 Cl      1  LIG  -0.0634  -0.1770 
24    H1       3.0010   -8.2319   -0.3959 H       1  LIG   0.3233   0.3700 
25    H2       7.1138  -10.9066   -1.5931 H       1  LIG   0.0635   0.0000 
26    H3       6.8567   -9.5412   -0.5017 H       1  LIG   0.0745   0.0000 
27    H4       7.1478  -11.1649    0.1597 H       1  LIG   0.0804   0.0000 
28    H5       1.9398  -10.8661   -0.2236 H       1  LIG   0.1659   0.1500 
29    H6       2.9740  -12.7068   -1.9978 H       1  LIG   0.0604   0.1500 
30    H7       2.0575   -6.2585   -0.6679 H       1  LIG   0.1393   0.1500 
31    H8       1.4279   -4.0570    0.1690 H       1  LIG   0.1544   0.1500 
32    H9       3.9556   -7.1459    3.1104 H       1  LIG   0.2037   0.1500 
33    H10      4.8241   -3.9779    6.2292 H       1  LIG   0.0630   0.0000 
34    H11      6.3751   -4.4832    5.5624 H       1  LIG   0.0697   0.0000 
35    H12      4.2647   -6.3180    6.8155 H       1  LIG   0.1009   0.1000 
36    H13      5.8871   -8.1848    6.3901 H       1  LIG   0.0757   0.1000 
37    H14      7.0159   -7.0346    5.5426 H       1  LIG   0.0766   0.1000 
38    H15      7.1958   -5.6643    7.6406 H       1  LIG   0.0680   0.1000 
39    H16      6.0656   -6.8125    8.4887 H       1  LIG   0.0730   0.1000 
@<TRIPOS>BOND
1     1     2     1
2     1     25    1
3     1     26    1
4     1     27    1
5     2     6     1
6     2     3     2
7     3     4     1
8     3     7     1
9     4     5     2
10    4     28    1
11    5     6     1
12    5     29    1
13    7     8     2
14    7     9     1
15    9     10    1
16    9     24    1
17    10    15    ar
18    10    11    ar
19    11    12    ar
20    11    30    1
21    12    13    ar
22    12    31    1
23    13    14    ar
24    13    23    1
25    14    15    ar
26    14    16    1
27    15    32    1
28    16    17    2
29    16    18    1
30    18    19    1
31    19    20    1
32    19    33    1
33    19    34    1
34    20    22    1
35    20    21    1
36    20    35    1
37    21    22    1
38    21    36    1
39    21    37    1
40    22    38    1
41    22    39    1
@<TRIPOS>SUBSTRUCTURE
1   LIG    1    
 
########## Number      : 701
########## Name        : ZINC00006595
########## Description : AM1BCC_CHARGES =   0.0002 ORIGINAL_CHARGES =   0.0000

@<TRIPOS>MOLECULE
ZINC00006595
38    38    1     0     0    
SMALL
USER_CHARGES
****
****
@<TRIPOS>ATOM
1     C1       6.0617   -9.2697    1.5323 C.3     1  LIG  -0.1001   0.0000 
2     C2       5.0690   -8.5330    0.6428 C.3     1  LIG   0.1441   0.2800 
3     C3       3.7170   -9.2358    0.6357 C.3     1  LIG  -0.1161   0.0000 
4     O1       4.9152   -7.2056    1.1838 O.3     1  LIG  -0.4295  -0.4300 
5     C4       4.5193   -6.2325    0.3254 C.2     1  LIG   0.6524   0.6338 
6     O2       4.2665   -6.3368   -0.8619 O.2     1  LIG  -0.5205  -0.5700 
7     C5       4.4113   -4.9735    1.0859 C.ar    1  LIG  -0.0810   0.0862 
8     C6       5.5376   -4.5344    1.8072 C.ar    1  LIG  -0.1086  -0.1500 
9     C7       5.4999   -3.3392    2.5269 C.ar    1  LIG   0.0538   0.1170 
10    C8       4.3146   -2.5852    2.4966 C.ar    1  LIG  -0.1464  -0.1500 
11    C9       3.1951   -3.0158    1.7788 C.ar    1  LIG  -0.1095  -0.1500 
12    C10      3.2391   -4.2137    1.0696 C.ar    1  LIG   0.0336   0.1770 
13    Cl1      1.8159   -4.7141    0.2308 Cl      1  LIG  -0.0629  -0.1770 
14    N1       6.5594   -2.7929    3.2912 N.pl3   1  LIG  -0.3995  -0.5470 
15    C11      7.8276   -3.2275    3.6159 C.2     1  LIG   0.5903   0.5900 
16    S1       8.6168   -4.6463    3.2406 S.2     1  LIG  -0.5095  -0.3800 
17    O3       8.4198   -2.2532    4.3706 O.3     1  LIG  -0.4193  -0.4300 
18    C12      9.7454   -2.2941    4.9715 C.3     1  LIG   0.1372   0.2800 
19    C13     10.2325   -0.8520    5.0555 C.3     1  LIG  -0.1023   0.0000 
20    C14      9.6439   -2.9090    6.3618 C.3     1  LIG  -0.1157   0.0000 
21    H1       6.3476   -1.8863    3.7018 H       1  LIG   0.3344   0.3700 
22    H2       7.0219   -8.7425    1.5482 H       1  LIG   0.0511   0.0000 
23    H3       5.7082   -9.3089    2.5687 H       1  LIG   0.0496   0.0000 
24    H4       6.2306  -10.2915    1.1794 H       1  LIG   0.0449   0.0000 
25    H5       5.4775   -8.4814   -0.3737 H       1  LIG   0.0758   0.0000 
26    H6       3.0053   -8.7038   -0.0041 H       1  LIG   0.0509   0.0000 
27    H7       3.8066  -10.2636    0.2708 H       1  LIG   0.0452   0.0000 
28    H8       3.2807   -9.2557    1.6405 H       1  LIG   0.0471   0.0000 
29    H9       6.4272   -5.1476    1.7625 H       1  LIG   0.2068   0.1500 
30    H10      4.2439   -1.6450    3.0410 H       1  LIG   0.1411   0.1500 
31    H11      2.2953   -2.4055    1.7878 H       1  LIG   0.1552   0.1500 
32    H12     10.4446   -2.8553    4.3442 H       1  LIG   0.1017   0.0000 
33    H13     11.2276   -0.7938    5.5069 H       1  LIG   0.0529   0.0000 
34    H14     10.2763   -0.4073    4.0554 H       1  LIG   0.0497   0.0000 
35    H15      9.5425   -0.2361    5.6430 H       1  LIG   0.0490   0.0000 
36    H16     10.6160   -2.9126    6.8644 H       1  LIG   0.0520   0.0000 
37    H17      8.9302   -2.3560    6.9827 H       1  LIG   0.0469   0.0000 
38    H18      9.2787   -3.9393    6.3115 H       1  LIG   0.0554   0.0000 
@<TRIPOS>BOND
1     1     2     1
2     1     22    1
3     1     23    1
4     1     24    1
5     2     3     1
6     2     4     1
7     2     25    1
8     3     26    1
9     3     27    1
10    3     28    1
11    4     5     1
12    5     6     2
13    5     7     1
14    7     12    ar
15    7     8     ar
16    8     9     ar
17    8     29    1
18    9     10    ar
19    9     14    1
20    10    11    ar
21    10    30    1
22    11    12    ar
23    11    31    1
24    12    13    1
25    14    15    1
26    14    21    1
27    15    16    2
28    15    17    1
29    17    18    1
30    18    19    1
31    18    20    1
32    18    32    1
33    19    33    1
34    19    34    1
35    19    35    1
36    20    36    1
37    20    37    1
38    20    38    1
@<TRIPOS>SUBSTRUCTURE
1   LIG    1    
 
########## Number      : 702
########## Name        : ZINC00006642
########## Description : AM1BCC_CHARGES =   0.0001 ORIGINAL_CHARGES =   0.0000

@<TRIPOS>MOLECULE
ZINC00006642
22    23    1     0     0    
SMALL
USER_CHARGES
****
****
@<TRIPOS>ATOM
1     C1       5.9444   -5.1156    0.3494 C.3     1  LIG   0.1133   0.2800 
2     O1       5.3318   -4.8193   -0.9045 O.3     1  LIG  -0.3203  -0.3567 
3     C2       3.9818   -5.1299   -0.8833 C.2     1  LIG   0.0383   0.0911 
4     C3       3.4976   -6.2025   -1.5249 C.2     1  LIG  -0.0670   0.1544 
5     C4       2.0509   -6.5343   -1.5436 C.2     1  LIG   0.5780   0.4694 
6     O2       1.6146   -7.5154   -2.1343 O.2     1  LIG  -0.4883  -0.5700 
7     C5       1.1384   -5.6347   -0.8131 C.ar    1  LIG  -0.1310   0.0862 
8     C6      -0.2306   -5.9274   -0.7701 C.ar    1  LIG  -0.0829  -0.1500 
9     C7      -1.1045   -5.0819   -0.0860 C.ar    1  LIG  -0.1122  -0.1500 
10    C8      -0.6170   -3.9445    0.5543 C.ar    1  LIG  -0.1148  -0.1500 
11    C9       0.7460   -3.6492    0.5126 C.ar    1  LIG  -0.0812  -0.1500 
12    C10      1.6264   -4.4967   -0.1717 C.ar    1  LIG  -0.1367   0.0862 
13    C11      3.0640   -4.1697   -0.2106 C.2     1  LIG   0.5637   0.4694 
14    O3       3.4821   -3.1324    0.2914 O.2     1  LIG  -0.4980  -0.5700 
15    Cl1      4.5395   -7.2941   -2.3730 Cl      1  LIG  -0.0343  -0.1400 
16    H1       7.0175   -4.9267    0.2515 H       1  LIG   0.0730   0.0000 
17    H2       5.5586   -4.4718    1.1458 H       1  LIG   0.0528   0.0000 
18    H3       5.8071   -6.1696    0.6150 H       1  LIG   0.0327   0.0000 
19    H4      -0.6330   -6.8088   -1.2633 H       1  LIG   0.1635   0.1500 
20    H5      -2.1662   -5.3103   -0.0532 H       1  LIG   0.1450   0.1500 
21    H6      -1.2987   -3.2866    1.0860 H       1  LIG   0.1450   0.1500 
22    H7       1.1045   -2.7563    1.0188 H       1  LIG   0.1615   0.1500 
@<TRIPOS>BOND
1     1     2     1
2     1     16    1
3     1     17    1
4     1     18    1
5     2     3     1
6     3     13    1
7     3     4     2
8     4     5     1
9     4     15    1
10    5     6     2
11    5     7     1
12    7     12    ar
13    7     8     ar
14    8     9     ar
15    8     19    1
16    9     10    ar
17    9     20    1
18    10    11    ar
19    10    21    1
20    11    12    ar
21    11    22    1
22    12    13    1
23    13    14    2
@<TRIPOS>SUBSTRUCTURE
1   LIG    1    
 
########## Number      : 703
########## Name        : ZINC00006701
########## Description : AM1BCC_CHARGES =  -0.0001 ORIGINAL_CHARGES =   0.0000

@<TRIPOS>MOLECULE
ZINC00006701
29    31    1     0     0    
SMALL
USER_CHARGES
****
****
@<TRIPOS>ATOM
1     C1       7.8501   -7.7770    0.0668 C.3     1  LIG  -0.0478   0.1435 
2     C2       6.3633   -7.5470    0.0178 C.ar    1  LIG  -0.1447  -0.1435 
3     C3       5.8712   -6.2321    0.1427 C.ar    1  LIG  -0.0712  -0.1500 
4     C4       4.4957   -5.9535    0.1106 C.ar    1  LIG  -0.1718   0.0530 
5     C5       3.6141   -7.0320   -0.0351 C.ar    1  LIG  -0.0426  -0.1500 
6     C6       4.0911   -8.3398   -0.1607 C.ar    1  LIG  -0.2056  -0.1500 
7     C7       5.4638   -8.6152   -0.1491 C.ar    1  LIG   0.1687   0.1000 
8     N1       5.8938   -9.9322   -0.2506 N.pl3   1  LIG  -0.8257  -0.9000 
9     C8       3.9458   -4.5924    0.2444 C.2     1  LIG   0.4470   0.3251 
10    N2       2.7089   -4.3366    0.6220 N.2     1  LIG  -0.5333  -0.5653 
11    C9       2.4694   -2.9722    0.6407 C.ar    1  LIG   0.0896   0.2272 
12    C10      1.2590   -2.3441    1.0038 C.ar    1  LIG  -0.0779  -0.1500 
13    C11      1.1657   -0.9496    0.9732 C.ar    1  LIG  -0.1314  -0.1500 
14    C12      2.2563   -0.1778    0.5872 C.ar    1  LIG  -0.1235  -0.1500 
15    C13      3.4650   -0.7769    0.2226 C.ar    1  LIG  -0.0900  -0.1500 
16    C14      3.5493   -2.1782    0.2569 C.ar    1  LIG  -0.0894   0.0400 
17    S1       4.8798   -3.1947   -0.1315 S.3     1  LIG  -0.0596  -0.0800 
18    H1       5.2249  -10.6722   -0.4181 H       1  LIG   0.3982   0.4000 
19    H2       6.8783  -10.1540   -0.3018 H       1  LIG   0.3992   0.4000 
20    H3       8.4004   -6.8402    0.2052 H       1  LIG   0.0455   0.0000 
21    H4       8.1048   -8.4348    0.9040 H       1  LIG   0.0490   0.0000 
22    H5       8.1951   -8.2260   -0.8702 H       1  LIG   0.0337   0.0000 
23    H6       6.5905   -5.4272    0.2802 H       1  LIG   0.1368   0.1500 
24    H7       2.5379   -6.8712   -0.0569 H       1  LIG   0.1532   0.1500 
25    H8       3.3725   -9.1493   -0.2707 H       1  LIG   0.1356   0.1500 
26    H9       0.4033   -2.9408    1.3060 H       1  LIG   0.1503   0.1500 
27    H10      0.2332   -0.4669    1.2533 H       1  LIG   0.1350   0.1500 
28    H11      2.1690    0.9057    0.5680 H       1  LIG   0.1344   0.1500 
29    H12      4.3129   -0.1694   -0.0785 H       1  LIG   0.1382   0.1500 
@<TRIPOS>BOND
1     1     2     1
2     1     20    1
3     1     21    1
4     1     22    1
5     2     7     ar
6     2     3     ar
7     3     4     ar
8     3     23    1
9     4     5     ar
10    4     9     1
11    5     6     ar
12    5     24    1
13    6     7     ar
14    6     25    1
15    7     8     1
16    8     18    1
17    8     19    1
18    9     17    1
19    9     10    2
20    10    11    1
21    11    16    ar
22    11    12    ar
23    12    13    ar
24    12    26    1
25    13    14    ar
26    13    27    1
27    14    15    ar
28    14    28    1
29    15    16    ar
30    15    29    1
31    16    17    1
@<TRIPOS>SUBSTRUCTURE
1   LIG    1    
 
########## Number      : 704
########## Name        : ZINC00006709
########## Description : AM1BCC_CHARGES =   1.0000 ORIGINAL_CHARGES =   1.0000

@<TRIPOS>MOLECULE
ZINC00006709
32    34    1     0     0    
SMALL
USER_CHARGES
****
****
@<TRIPOS>ATOM
1     C1       4.3143    3.2401   -0.9993 C.ar    1  LIG  -0.0987  -0.1500 
2     C2       5.1809    2.8794    0.0360 C.ar    1  LIG  -0.0631  -0.1500 
3     C3       4.8547    1.7632    0.7778 C.ar    1  LIG   0.0512   0.0825 
4     C4       3.7187    1.0215    0.5182 C.ar    1  LIG  -0.0325   0.1170 
5     C5       2.8439    1.3498   -0.4967 C.ar    1  LIG  -0.1165  -0.1500 
6     C6       3.1577    2.4791   -1.2592 C.ar    1  LIG   0.0303   0.1770 
7     Cl1      2.1078    2.9510   -2.5422 Cl      1  LIG  -0.0324  -0.1770 
8     N1       3.7163    0.0004    1.4445 N.am    1  LIG  -0.4052  -0.4771 
9     C7       4.8470    0.1407    2.2330 C.2     1  LIG   0.8166   0.7800 
10    O1       5.1792   -0.5833    3.1635 O.2     1  LIG  -0.5559  -0.5700 
11    O2       5.5955    1.2600    1.8367 O.3     1  LIG  -0.2406  -0.2325 
12    C8       2.7379   -1.0497    1.5498 C.3     1  LIG   0.3371   0.8031 
13    C9       1.0464   -2.0926    3.0671 C.3     1  LIG   0.0725   0.5030 
14    C10      0.2068   -1.8363    4.3091 C.3     1  LIG   0.0998   0.2800 
15    O3      -0.6704   -0.7286    4.1014 O.3     1  LIG  -0.3715  -0.5600 
16    C11      0.0638    0.4718    3.8578 C.3     1  LIG   0.0999   0.2800 
17    C12      0.9005    0.3445    2.5928 C.3     1  LIG   0.0654   0.5030 
18    H1       4.5440    4.1157   -1.6021 H       1  LIG   0.1811   0.1500 
19    H2       6.0739    3.4577    0.2438 H       1  LIG   0.1878   0.1500 
20    H3       1.9527    0.7669   -0.6975 H       1  LIG   0.1583   0.1500 
21    H4       3.2714   -1.9904    1.7245 H       1  LIG   0.1273   0.0000 
22    H5       2.1169   -1.1381    0.6530 H       1  LIG   0.1232   0.0000 
23    H6       0.4204   -2.3102    2.1948 H       1  LIG   0.1108   0.0000 
24    H7       1.7613   -2.9039    3.2345 H       1  LIG   0.1136   0.0000 
25    H8      -0.4115   -2.7133    4.5248 H       1  LIG   0.1299   0.0000 
26    H9       0.8335   -1.6488    5.1891 H       1  LIG   0.0702   0.0000 
27    H10     -0.6593    1.2851    3.7416 H       1  LIG   0.1285   0.0000 
28    H11      0.6857    0.7048    4.7304 H       1  LIG   0.0692   0.0000 
29    H12      1.5062    1.2415    2.4412 H       1  LIG   0.1120   0.0000 
30    H13      0.2761    0.1503    1.7142 H       1  LIG   0.1083   0.0000 
31    N2       1.8343   -0.8390    2.7429 N.4     1  LIG  -0.7325  -0.9590 
32    H14      2.4551   -0.6501    3.5417 H       1  LIG   0.4559   0.4500 
@<TRIPOS>BOND
1     1     6     ar
2     1     2     ar
3     1     18    1
4     2     3     ar
5     2     19    1
6     3     11    1
7     3     4     ar
8     4     5     ar
9     4     8     1
10    5     6     ar
11    5     20    1
12    6     7     1
13    8     9     am
14    8     12    1
15    9     10    2
16    9     11    1
17    12    21    1
18    12    22    1
19    12    31    1
20    13    14    1
21    13    23    1
22    13    24    1
23    13    31    1
24    14    15    1
25    14    25    1
26    14    26    1
27    15    16    1
28    16    17    1
29    16    27    1
30    16    28    1
31    17    29    1
32    17    30    1
33    17    31    1
34    31    32    1
@<TRIPOS>SUBSTRUCTURE
1   LIG    1    
 
########## Number      : 705
########## Name        : ZINC00006732
########## Description : AM1BCC_CHARGES =  -0.0000 ORIGINAL_CHARGES =   0.0000

@<TRIPOS>MOLECULE
ZINC00006732
40    41    1     0     0    
SMALL
USER_CHARGES
****
****
@<TRIPOS>ATOM
1     C1       7.0113   -8.4562    0.1469 C.3     1  LIG  -0.1446   0.1800 
2     C2       6.0317   -9.5538    0.2991 C.2     1  LIG   0.2860  -0.0400 
3     C3       4.6821   -9.6019    0.6278 C.2     1  LIG  -0.2720  -0.0860 
4     C4       4.3394  -10.9897    0.5695 C.2     1  LIG  -0.2083  -0.1500 
5     C5       5.4827  -11.6682    0.2251 C.2     1  LIG   0.2339  -0.0100 
6     O1       6.5138  -10.8057    0.0605 O.3     1  LIG  -0.3552  -0.2800 
7     C6       3.8436   -8.4525    0.9613 C.2     1  LIG   0.4549   0.5260 
8     S1       2.3492   -8.4256    0.2158 S.2     1  LIG  -0.4230  -0.3800 
9     N1       4.4188   -7.5855    1.8779 N.pl3   1  LIG  -0.3968  -0.5470 
10    C7       4.0169   -6.3217    2.3839 C.ar    1  LIG   0.0832   0.1170 
11    C8       2.9680   -5.5467    1.8915 C.ar    1  LIG  -0.1759  -0.1500 
12    C9       2.6697   -4.3081    2.4669 C.ar    1  LIG  -0.0752  -0.1500 
13    C10      3.4237   -3.8273    3.5368 C.ar    1  LIG  -0.0297   0.1770 
14    C11      4.4919   -4.5754    4.0428 C.ar    1  LIG   0.1624   0.0825 
15    C12      4.7803   -5.8151    3.4554 C.ar    1  LIG  -0.2534  -0.1500 
16    O2       5.1841   -4.0245    5.0897 O.3     1  LIG  -0.3125  -0.3625 
17    C13      6.2718   -4.7704    5.6396 C.3     1  LIG   0.1676   0.4182 
18    C14      6.8827   -3.9372    6.7275 C.2     1  LIG  -0.1885  -0.2882 
19    C15      7.0824   -4.2626    8.0191 C.2     1  LIG  -0.0888  -0.2764 
20    C16      7.7142   -3.2727    8.9629 C.3     1  LIG  -0.0660   0.1382 
21    C17      6.7245   -5.5760    8.6554 C.3     1  LIG  -0.0662   0.1382 
22    Cl1      3.0057   -2.2884    4.2050 Cl      1  LIG  -0.0697  -0.1770 
23    H1       5.2854   -7.9216    2.2932 H       1  LIG   0.3173   0.3700 
24    H2       7.8207   -8.7429   -0.5319 H       1  LIG   0.0734   0.0000 
25    H3       6.5348   -7.5604   -0.2628 H       1  LIG   0.0705   0.0000 
26    H4       7.4519   -8.2030    1.1159 H       1  LIG   0.0537   0.0000 
27    H5       3.3771  -11.4411    0.7675 H       1  LIG   0.1817   0.1500 
28    H6       5.7142  -12.7115    0.0675 H       1  LIG   0.0602   0.1500 
29    H7       2.3665   -5.8430    1.0433 H       1  LIG   0.1893   0.1500 
30    H8       1.8466   -3.7239    2.0619 H       1  LIG   0.1540   0.1500 
31    H9       5.6051   -6.4175    3.8281 H       1  LIG   0.1381   0.1500 
32    H10      5.9069   -5.7314    6.0094 H       1  LIG   0.0471   0.0000 
33    H11      7.0367   -4.9368    4.8717 H       1  LIG   0.0415   0.0000 
34    H12      7.1988   -2.9478    6.3974 H       1  LIG   0.1409   0.1500 
35    H13      8.6417   -3.6823    9.3765 H       1  LIG   0.0434   0.0000 
36    H14      7.9600   -2.3251    8.4721 H       1  LIG   0.0443   0.0000 
37    H15      7.0324   -3.0502    9.7904 H       1  LIG   0.0484   0.0000 
38    H16      7.6163   -6.0339    9.0968 H       1  LIG   0.0453   0.0000 
39    H17      5.9896   -5.4188    9.4519 H       1  LIG   0.0510   0.0000 
40    H18      6.3020   -6.3024    7.9590 H       1  LIG   0.0377   0.0000 
@<TRIPOS>BOND
1     1     2     1
2     1     24    1
3     1     25    1
4     1     26    1
5     2     6     1
6     2     3     2
7     3     4     1
8     3     7     1
9     4     5     2
10    4     27    1
11    5     6     1
12    5     28    1
13    7     8     2
14    7     9     1
15    9     10    1
16    9     23    1
17    10    15    ar
18    10    11    ar
19    11    12    ar
20    11    29    1
21    12    13    ar
22    12    30    1
23    13    14    ar
24    13    22    1
25    14    15    ar
26    14    16    1
27    15    31    1
28    16    17    1
29    17    18    1
30    17    32    1
31    17    33    1
32    18    19    2
33    18    34    1
34    19    20    1
35    19    21    1
36    20    35    1
37    20    36    1
38    20    37    1
39    21    38    1
40    21    39    1
41    21    40    1
@<TRIPOS>SUBSTRUCTURE
1   LIG    1    
 
########## Number      : 706
########## Name        : ZINC00006769
########## Description : AM1BCC_CHARGES =  -0.0000 ORIGINAL_CHARGES =  -0.0000

@<TRIPOS>MOLECULE
ZINC00006769
32    33    1     0     0    
SMALL
USER_CHARGES
****
****
@<TRIPOS>ATOM
1     C1       1.0743   -2.6891    1.7404 C.3     1  LIG   0.1904   0.3691 
2     N1       1.6856   -1.4785    1.2431 N.pl3   1  LIG  -0.7633  -0.8691 
3     C2       2.0677   -0.4084    2.0332 C.ar    1  LIG   0.3175   0.1000 
4     C3       1.8698   -0.4224    3.4280 C.ar    1  LIG  -0.2287  -0.1500 
5     C4       2.2265    0.6572    4.2430 C.ar    1  LIG  -0.0165  -0.1500 
6     C5       2.7919    1.7905    3.6754 C.ar    1  LIG  -0.0647   0.1770 
7     C6       3.0018    1.8510    2.3028 C.ar    1  LIG   0.0100  -0.1500 
8     C7       2.6379    0.7620    1.4912 C.ar    1  LIG  -0.4904  -0.0090 
9     S1       2.9680    0.9644   -0.2552 S.o2    1  LIG   1.4444   1.3180 
10    O1       4.2769    1.5886   -0.3213 O.2     1  LIG  -0.6321  -0.6500 
11    O2       2.7209   -0.2927   -0.9337 O.2     1  LIG  -0.6524  -0.6500 
12    C8       1.7935    2.1089   -0.9290 C.ar    1  LIG  -0.2732  -0.0090 
13    C9       0.5512    2.2444   -0.3037 C.ar    1  LIG  -0.0381  -0.1500 
14    C10     -0.3750    3.1755   -0.7831 C.ar    1  LIG  -0.1226  -0.1500 
15    C11     -0.0706    3.9735   -1.8867 C.ar    1  LIG  -0.0816  -0.1500 
16    C12      1.1596    3.8394   -2.5266 C.ar    1  LIG  -0.1019  -0.1500 
17    C13      2.0800    2.9042   -2.0432 C.ar    1  LIG  -0.0585   0.1330 
18    N2       3.3144    2.7714   -2.7811 N.pl3   1  LIG   0.3041   0.9070 
19    O3       3.4983    1.7060   -3.3827 O.2     1  LIG  -0.1788  -0.5200 
20    O4       4.0795    3.7441   -2.7738 O.3     1  LIG  -0.1889  -0.5200 
21    Cl1      3.2297    3.1235    4.6717 Cl      1  LIG  -0.0826  -0.1770 
22    H1       1.9041   -1.4456    0.2521 H       1  LIG   0.4715   0.4000 
23    H2       0.8750   -3.3669    0.9044 H       1  LIG   0.0606   0.0000 
24    H3       1.7373   -3.2099    2.4386 H       1  LIG   0.0369   0.0000 
25    H4       0.1182   -2.4779    2.2300 H       1  LIG   0.0435   0.0000 
26    H5       1.4272   -1.2877    3.9169 H       1  LIG   0.1461   0.1500 
27    H6       2.0541    0.5949    5.3143 H       1  LIG   0.1512   0.1500 
28    H7       3.4414    2.7449    1.8663 H       1  LIG   0.1671   0.1500 
29    H8       0.2703    1.6376    0.5517 H       1  LIG   0.1575   0.1500 
30    H9      -1.3398    3.2781   -0.2930 H       1  LIG   0.1495   0.1500 
31    H10     -0.7976    4.6936   -2.2520 H       1  LIG   0.1514   0.1500 
32    H11      1.3792    4.4546   -3.3954 H       1  LIG   0.1726   0.1500 
@<TRIPOS>BOND
1     1     2     1
2     1     23    1
3     1     24    1
4     1     25    1
5     2     3     1
6     2     22    1
7     3     8     ar
8     3     4     ar
9     4     5     ar
10    4     26    1
11    5     6     ar
12    5     27    1
13    6     7     ar
14    6     21    1
15    7     8     ar
16    7     28    1
17    8     9     1
18    9     10    2
19    9     11    2
20    9     12    1
21    12    17    ar
22    12    13    ar
23    13    14    ar
24    13    29    1
25    14    15    ar
26    14    30    1
27    15    16    ar
28    15    31    1
29    16    17    ar
30    16    32    1
31    17    18    1
32    18    19    2
33    18    20    1
@<TRIPOS>SUBSTRUCTURE
1   LIG    1    
 
########## Number      : 707
########## Name        : ZINC00006787
########## Description : AM1BCC_CHARGES =  -0.0001 ORIGINAL_CHARGES =   0.0000

@<TRIPOS>MOLECULE
ZINC00006787
29    30    1     0     0    
SMALL
USER_CHARGES
****
****
@<TRIPOS>ATOM
1     C1       6.1639   -7.2441   -0.5009 C.ar    1  LIG  -0.0763  -0.1500 
2     C2       6.4877   -8.6030   -0.5164 C.ar    1  LIG  -0.2139  -0.1500 
3     C3       5.7105   -9.5010    0.2087 C.ar    1  LIG   0.1297   0.0825 
4     C4       4.6203   -9.0577    0.9498 C.ar    1  LIG  -0.1587  -0.1500 
5     C5       4.2985   -7.6982    0.9632 C.ar    1  LIG  -0.0832  -0.1500 
6     C6       5.0583   -6.7764    0.2270 C.ar    1  LIG  -0.0979   0.0284 
7     C7       4.7789   -5.3301    0.2316 C.2     1  LIG  -0.0834  -0.1784 
8     C8       3.5532   -4.7940    0.3503 C.2     1  LIG  -0.1224  -0.1784 
9     C9       3.2751   -3.3474    0.3546 C.ar    1  LIG   0.0185   0.0284 
10    C10      4.0308   -2.4292   -0.3898 C.ar    1  LIG  -0.1835  -0.1500 
11    C11      3.7044   -1.0720   -0.3711 C.ar    1  LIG   0.1578   0.0825 
12    C12      2.6250   -0.6043    0.3719 C.ar    1  LIG  -0.2444  -0.1500 
13    C13      1.8653   -1.5157    1.0972 C.ar    1  LIG   0.1629   0.0825 
14    C14      2.1759   -2.8775    1.0905 C.ar    1  LIG  -0.2423  -0.1500 
15    O1       0.8042   -1.0402    1.8157 O.3     1  LIG  -0.4972  -0.5325 
16    O2       4.4740   -0.2162   -1.1087 O.3     1  LIG  -0.4963  -0.5325 
17    O3       5.9978  -10.8363    0.2176 O.3     1  LIG  -0.4957  -0.5325 
18    H1       0.3738   -1.7867    2.2662 H       1  LIG   0.4216   0.4500 
19    H2       4.1272    0.6857   -0.9987 H       1  LIG   0.4223   0.4500 
20    H3       6.7795  -10.9889   -0.3403 H       1  LIG   0.4202   0.4500 
21    H4       6.7826   -6.5538   -1.0708 H       1  LIG   0.1358   0.1500 
22    H5       7.3435   -8.9419   -1.0927 H       1  LIG   0.1353   0.1500 
23    H6       4.0209   -9.7601    1.5221 H       1  LIG   0.1517   0.1500 
24    H7       3.4529   -7.3745    1.5649 H       1  LIG   0.1362   0.1500 
25    H8       5.6523   -4.6921    0.1200 H       1  LIG   0.1313   0.1500 
26    H9       2.6796   -5.4317    0.4618 H       1  LIG   0.1299   0.1500 
27    H10      4.8706   -2.7584   -0.9968 H       1  LIG   0.1528   0.1500 
28    H11      2.3709    0.4512    0.3861 H       1  LIG   0.1529   0.1500 
29    H12      1.5660   -3.5722    1.6638 H       1  LIG   0.1362   0.1500 
@<TRIPOS>BOND
1     1     6     ar
2     1     2     ar
3     1     21    1
4     2     3     ar
5     2     22    1
6     3     4     ar
7     3     17    1
8     4     5     ar
9     4     23    1
10    5     6     ar
11    5     24    1
12    6     7     1
13    7     8     2
14    7     25    1
15    8     9     1
16    8     26    1
17    9     14    ar
18    9     10    ar
19    10    11    ar
20    10    27    1
21    11    12    ar
22    11    16    1
23    12    13    ar
24    12    28    1
25    13    14    ar
26    13    15    1
27    14    29    1
28    15    18    1
29    16    19    1
30    17    20    1
@<TRIPOS>SUBSTRUCTURE
1   LIG    1    
 
########## Number      : 708
########## Name        : ZINC00006792
########## Description : AM1BCC_CHARGES =   1.0002 ORIGINAL_CHARGES =   1.0000

@<TRIPOS>MOLECULE
ZINC00006792
40    41    1     0     0    
SMALL
USER_CHARGES
****
****
@<TRIPOS>ATOM
1     C1       6.2437   -8.8178   -2.1749 C.3     1  LIG  -0.1368   0.0000 
2     C2       6.1055   -9.6016   -0.8816 C.3     1  LIG   0.1116   0.5030 
3     C3       4.4121   -9.9717    0.9465 C.3     1  LIG   0.1087   0.5030 
4     C4       3.3253  -10.7396    0.2150 C.3     1  LIG  -0.1354   0.0000 
5     C5       5.6216   -7.7666    0.7783 C.3     1  LIG   0.0879   0.5030 
6     C6       4.5137   -6.7613    1.1012 C.3     1  LIG   0.1738   0.3691 
7     N1       5.0755   -5.6185    1.8040 N.pl3   1  LIG  -0.7280  -0.8691 
8     C7       4.3295   -4.5120    2.2050 C.ar    1  LIG   0.1652   0.1000 
9     C8       2.9547   -4.4361    1.9525 C.ar    1  LIG  -0.3152  -0.1500 
10    C9       2.2544   -3.3185    2.3601 C.ar    1  LIG   0.4400   0.1600 
11    N2       2.8121   -2.2716    2.9936 N.ar    1  LIG  -0.6478  -0.6200 
12    C10      4.1282   -2.3120    3.2425 C.ar    1  LIG   0.4224   0.3100 
13    C11      4.9471   -3.4081    2.8696 C.ar    1  LIG  -0.1618   0.0000 
14    C12      6.3291   -3.3356    3.1809 C.ar    1  LIG  -0.1133  -0.1500 
15    C13      6.8792   -2.2328    3.8341 C.ar    1  LIG  -0.1121  -0.1500 
16    C14      6.0560   -1.1773    4.1891 C.ar    1  LIG   0.0303   0.1770 
17    C15      4.6954   -1.2217    3.8936 C.ar    1  LIG  -0.1581  -0.1500 
18    Cl1      6.7155    0.1926    4.9960 Cl      1  LIG  -0.0571  -0.1770 
19    H1       6.0527   -5.6607    2.0618 H       1  LIG   0.4067   0.4000 
20    H2       6.9714   -9.3066   -2.8305 H       1  LIG   0.1028   0.0000 
21    H3       5.2895   -8.7704   -2.7098 H       1  LIG   0.0685   0.0000 
22    H4       6.5885   -7.7944   -2.0025 H       1  LIG   0.0701   0.0000 
23    H5       5.7794  -10.6203   -1.1100 H       1  LIG   0.1042   0.0000 
24    H6       7.0446   -9.6492   -0.3202 H       1  LIG   0.1037   0.0000 
25    H7       5.2013  -10.6277    1.3285 H       1  LIG   0.1045   0.0000 
26    H8       3.9683   -9.4292    1.7861 H       1  LIG   0.1029   0.0000 
27    H9       2.8396  -11.4415    0.9005 H       1  LIG   0.1031   0.0000 
28    H10      2.5567  -10.0619   -0.1709 H       1  LIG   0.0677   0.0000 
29    H11      3.7222  -11.3175   -0.6242 H       1  LIG   0.0677   0.0000 
30    H12      6.1165   -8.1505    1.6779 H       1  LIG   0.1013   0.0000 
31    H13      6.3798   -7.2878    0.1503 H       1  LIG   0.1199   0.0000 
32    H14      4.0483   -6.4301    0.1650 H       1  LIG   0.0761   0.0000 
33    H15      3.7429   -7.2305    1.7213 H       1  LIG   0.0373   0.0000 
34    H16      2.4145   -5.2298    1.4480 H       1  LIG   0.1320   0.1500 
35    H17      1.1874   -3.2346    2.1803 H       1  LIG   0.0347   0.1500 
36    H18      7.0100   -4.1406    2.9186 H       1  LIG   0.1277   0.1500 
37    H19      7.9428   -2.2155    4.0550 H       1  LIG   0.1577   0.1500 
38    H20      4.0580   -0.3850    4.1765 H       1  LIG   0.1784   0.1500 
39    N3       5.0571   -8.9574    0.0137 N.4     1  LIG  -0.6887  -0.9590 
40    H21      4.3153   -8.5996   -0.6035 H       1  LIG   0.4476   0.4500 
@<TRIPOS>BOND
1     1     2     1
2     1     20    1
3     1     21    1
4     1     22    1
5     2     23    1
6     2     24    1
7     2     39    1
8     3     4     1
9     3     25    1
10    3     26    1
11    3     39    1
12    4     27    1
13    4     28    1
14    4     29    1
15    5     6     1
16    5     30    1
17    5     31    1
18    5     39    1
19    6     7     1
20    6     32    1
21    6     33    1
22    7     8     1
23    7     19    1
24    8     13    ar
25    8     9     ar
26    9     10    ar
27    9     34    1
28    10    11    ar
29    10    35    1
30    11    12    ar
31    12    17    ar
32    12    13    ar
33    13    14    ar
34    14    15    ar
35    14    36    1
36    15    16    ar
37    15    37    1
38    16    17    ar
39    16    18    1
40    17    38    1
41    39    40    1
@<TRIPOS>SUBSTRUCTURE
1   LIG    1    
 
########## Number      : 709
########## Name        : ZINC00006800
########## Description : AM1BCC_CHARGES =   0.0001 ORIGINAL_CHARGES =   0.0000

@<TRIPOS>MOLECULE
ZINC00006800
32    34    1     0     0    
SMALL
USER_CHARGES
****
****
@<TRIPOS>ATOM
1     C1       6.8512   -8.2041    0.0589 C.ar    1  LIG  -0.1582  -0.1500 
2     C2       6.0307   -9.1627   -0.5282 C.ar    1  LIG  -0.1103  -0.1500 
3     C3       4.6402   -9.0708   -0.4347 C.ar    1  LIG  -0.1492  -0.1500 
4     C4       4.1049   -7.9843    0.2679 C.ar    1  LIG  -0.0554  -0.1516 
5     C5       4.8980   -7.0032    0.8701 C.ar    1  LIG  -0.0644   0.0000 
6     C6       6.3011   -7.1232    0.7584 C.ar    1  LIG  -0.0679  -0.1500 
7     C7       4.0109   -6.0611    1.4900 C.2     1  LIG  -0.1900  -0.0860 
8     C8       2.7249   -6.5006    1.2437 C.2     1  LIG  -0.0898  -0.3016 
9     N1       2.7931   -7.6532    0.5110 N.pl3   1  LIG  -0.1848   0.0332 
10    C9       4.3002   -4.8614    2.2436 C.2     1  LIG   0.4110   0.4760 
11    N2       5.5261   -4.5077    2.4382 N.2     1  LIG  -0.4297  -0.5120 
12    N3       5.6725   -3.3674    3.1573 N.am    1  LIG  -0.3398  -0.3680 
13    C10      6.9511   -2.8992    3.4023 C.2     1  LIG   0.6919   0.5438 
14    O1       7.9839   -3.4236    2.9932 O.2     1  LIG  -0.5377  -0.5700 
15    C11      7.0397   -1.6523    4.2057 C.ar    1  LIG  -0.1083   0.0862 
16    C12      6.0734   -1.3073    5.1515 C.ar    1  LIG  -0.2251  -0.1500 
17    C13      6.2519   -0.1286    5.8602 C.ar    1  LIG   0.3889   0.1600 
18    N4       7.3024    0.7048    5.6962 N.ar    1  LIG  -0.6463  -0.6200 
19    C14      8.2252    0.3359    4.7817 C.ar    1  LIG   0.3896   0.1600 
20    C15      8.1456   -0.8200    4.0214 C.ar    1  LIG  -0.1937  -0.1500 
21    H1       1.9955   -8.1864    0.1930 H       1  LIG   0.3006   0.2700 
22    H2       4.8341   -2.8846    3.4625 H       1  LIG   0.2951   0.3700 
23    H3       7.9311   -8.2933   -0.0251 H       1  LIG   0.1328   0.1500 
24    H4       6.4768   -9.9946   -1.0672 H       1  LIG   0.1291   0.1500 
25    H5       4.0009   -9.8184   -0.8927 H       1  LIG   0.1306   0.1500 
26    H6       6.9630   -6.3881    1.2077 H       1  LIG   0.1639   0.1500 
27    H7       1.7642   -6.0922    1.5270 H       1  LIG   0.1643   0.1500 
28    H8       3.4407   -4.2842    2.6307 H       1  LIG  -0.0205   0.0600 
29    H9       5.2121   -1.9299    5.3638 H       1  LIG   0.1450   0.1500 
30    H10      5.5303    0.1830    6.6089 H       1  LIG   0.0276   0.1500 
31    H11      9.0625    1.0175    4.6702 H       1  LIG   0.0311   0.1500 
32    H12      8.9253   -1.0513    3.3031 H       1  LIG   0.1697   0.1500 
@<TRIPOS>BOND
1     1     6     ar
2     1     2     ar
3     1     23    1
4     2     3     ar
5     2     24    1
6     3     4     ar
7     3     25    1
8     4     9     1
9     4     5     ar
10    5     6     ar
11    5     7     1
12    6     26    1
13    7     8     2
14    7     10    1
15    8     9     1
16    8     27    1
17    9     21    1
18    10    11    2
19    10    28    1
20    11    12    1
21    12    13    am
22    12    22    1
23    13    14    2
24    13    15    1
25    15    20    ar
26    15    16    ar
27    16    17    ar
28    16    29    1
29    17    18    ar
30    17    30    1
31    18    19    ar
32    19    20    ar
33    19    31    1
34    20    32    1
@<TRIPOS>SUBSTRUCTURE
1   LIG    1    
 
########## Number      : 710
########## Name        : ZINC00006815
########## Description : AM1BCC_CHARGES =   1.0002 ORIGINAL_CHARGES =   1.0000

@<TRIPOS>MOLECULE
ZINC00006815
45    48    1     0     0    
SMALL
USER_CHARGES
****
****
@<TRIPOS>ATOM
1     C1       1.5199    0.0742   -4.3240 C.3     1  LIG  -0.0323   0.4880 
2     N1       0.8140   -0.9174   -3.4792 N.ar    1  LIG   0.0461  -0.2100 
3     C2       0.4698   -2.0529   -4.1263 C.ar    1  LIG   0.0286   0.2110 
4     C3       0.0735   -3.2029   -3.4717 C.ar    1  LIG  -0.0734   0.0000 
5     C4      -0.2511   -4.3570   -4.2098 C.ar    1  LIG  -0.1332  -0.1500 
6     C5      -0.6120   -5.5468   -3.5774 C.ar    1  LIG   0.1541   0.0825 
7     C6      -0.6438   -5.5792   -2.1907 C.ar    1  LIG  -0.1252  -0.1500 
8     C7      -0.3220   -4.4300   -1.4564 C.ar    1  LIG  -0.0921  -0.1500 
9     C8       0.0434   -3.2032   -2.0738 C.ar    1  LIG   0.0039   0.0000 
10    C9       0.3579   -1.9850   -1.3884 C.ar    1  LIG  -0.0011   0.0000 
11    C10      0.6499   -0.7815   -2.1176 C.ar    1  LIG  -0.0110   0.3610 
12    C11      0.7646    0.4808   -1.4025 C.ar    1  LIG  -0.0259   0.0000 
13    C12      0.7698    1.7861   -1.9735 C.ar    1  LIG  -0.2272  -0.1500 
14    C13      0.9392    2.9650   -1.2270 C.ar    1  LIG   0.1578   0.0825 
15    C14      1.0698    2.8847    0.1597 C.ar    1  LIG   0.1532   0.0825 
16    C15      0.9904    1.6336    0.7672 C.ar    1  LIG  -0.1896  -0.1500 
17    C16      0.8140    0.4588    0.0120 C.ar    1  LIG  -0.0101   0.0000 
18    C17      0.6550   -0.7407    0.6960 C.ar    1  LIG  -0.0610  -0.1500 
19    C18      0.3919   -1.9224    0.0147 C.ar    1  LIG  -0.1355  -0.1500 
20    O1       1.2406    4.0723    0.8236 O.3     1  LIG  -0.2850  -0.3625 
21    C19      1.4157    4.0160    2.2340 C.3     1  LIG   0.1025   0.2800 
22    O2       0.9698    4.2302   -1.7597 O.3     1  LIG  -0.2825  -0.3625 
23    C20      0.9453    4.3531   -3.1761 C.3     1  LIG   0.1048   0.2800 
24    O3      -0.9014   -6.5879   -4.4160 O.3     1  LIG  -0.3069  -0.3625 
25    C21     -1.2752   -7.8178   -3.8056 C.3     1  LIG   0.1043   0.2800 
26    H1       2.0553   -0.4497   -5.1232 H       1  LIG   0.0851   0.0000 
27    H2       0.7737    0.7372   -4.7666 H       1  LIG   0.0869   0.0000 
28    H3       2.2765    0.5950   -3.7348 H       1  LIG   0.1116   0.0000 
29    H4       0.5614   -2.0271   -5.2094 H       1  LIG   0.1958   0.1500 
30    H5      -0.2169   -4.3340   -5.2989 H       1  LIG   0.1728   0.1500 
31    H6      -0.9159   -6.4748   -1.6409 H       1  LIG   0.1678   0.1500 
32    H7      -0.3767   -4.5200   -0.3743 H       1  LIG   0.1619   0.1500 
33    H8       0.5815    1.8931   -3.0326 H       1  LIG   0.1424   0.1500 
34    H9       1.0449    1.5484    1.8504 H       1  LIG   0.1625   0.1500 
35    H10      0.6830   -0.7715    1.7844 H       1  LIG   0.1613   0.1500 
36    H11      0.2263   -2.8029    0.6299 H       1  LIG   0.1580   0.1500 
37    H12      1.5740    5.0381    2.5914 H       1  LIG   0.0917   0.0000 
38    H13      0.5185    3.6273    2.7266 H       1  LIG   0.0445   0.0000 
39    H14      2.3016    3.4300    2.5002 H       1  LIG   0.0427   0.0000 
40    H15      1.0544    5.4141   -3.4207 H       1  LIG   0.0952   0.0000 
41    H16      1.7825    3.8183   -3.6367 H       1  LIG   0.0308   0.0000 
42    H17     -0.0141    4.0164   -3.5821 H       1  LIG   0.0383   0.0000 
43    H18     -1.4737   -8.5397   -4.6036 H       1  LIG   0.0942   0.0000 
44    H19     -0.4614   -8.2165   -3.1908 H       1  LIG   0.0466   0.0000 
45    H20     -2.1948   -7.7053   -3.2219 H       1  LIG   0.0468   0.0000 
@<TRIPOS>BOND
1     1     2     1
2     1     26    1
3     1     27    1
4     1     28    1
5     2     11    ar
6     2     3     ar
7     3     4     ar
8     3     29    1
9     4     9     ar
10    4     5     ar
11    5     6     ar
12    5     30    1
13    6     7     ar
14    6     24    1
15    7     8     ar
16    7     31    1
17    8     9     ar
18    8     32    1
19    9     10    ar
20    10    19    ar
21    10    11    ar
22    11    12    ar
23    12    17    ar
24    12    13    ar
25    13    14    ar
26    13    33    1
27    14    15    ar
28    14    22    1
29    15    16    ar
30    15    20    1
31    16    17    ar
32    16    34    1
33    17    18    ar
34    18    19    ar
35    18    35    1
36    19    36    1
37    20    21    1
38    21    37    1
39    21    38    1
40    21    39    1
41    22    23    1
42    23    40    1
43    23    41    1
44    23    42    1
45    24    25    1
46    25    43    1
47    25    44    1
48    25    45    1
@<TRIPOS>SUBSTRUCTURE
1   LIG    1    
 
########## Number      : 711
########## Name        : ZINC00006846
########## Description : AM1BCC_CHARGES =   0.0001 ORIGINAL_CHARGES =  -0.0000

@<TRIPOS>MOLECULE
ZINC00006846
31    33    1     0     0    
SMALL
USER_CHARGES
****
****
@<TRIPOS>ATOM
1     C1       3.4987   -9.7314    0.9688 C.2     1  LIG  -0.1481  -0.1500 
2     C2       2.9510   -8.4310    0.7649 C.2     1  LIG  -0.1426  -0.1500 
3     C3       3.7877   -7.4283    1.2144 C.2     1  LIG  -0.1708   0.0400 
4     S1       5.2280   -8.0788    1.8790 S.3     1  LIG   0.1277  -0.0800 
5     C4       4.7400   -9.6889    1.5677 C.2     1  LIG  -0.1880  -0.1400 
6     C5       5.6218  -10.8313    1.9396 C.3     1  LIG   0.2058   0.4600 
7     O1       6.5315  -11.0486    0.8688 O.3     1  LIG  -0.5940  -0.6800 
8     C6       3.5623   -6.0083    1.1716 C.2     1  LIG   0.3406   0.1400 
9     C7       2.4714   -5.3161    0.6764 C.2     1  LIG  -0.2362  -0.1500 
10    C8       2.7286   -3.9370    0.8650 C.2     1  LIG  -0.2356  -0.1500 
11    C9       3.9686   -3.8300    1.4694 C.2     1  LIG   0.3398   0.1400 
12    O2       4.4656   -5.0949    1.6509 O.3     1  LIG  -0.3723  -0.2800 
13    C10      4.6799   -2.6452    1.8685 C.2     1  LIG  -0.1559   0.0400 
14    C11      4.2760   -1.3312    1.7347 C.2     1  LIG  -0.1454  -0.1500 
15    C12      5.2381   -0.4100    2.2431 C.2     1  LIG  -0.1280  -0.1500 
16    C13      6.3520   -1.0438    2.7517 C.2     1  LIG  -0.1808  -0.1400 
17    S2       6.2227   -2.7437    2.6101 S.3     1  LIG   0.0791  -0.0800 
18    C14      7.5612   -0.4284    3.3669 C.3     1  LIG   0.2066   0.4600 
19    O3       7.3230   -0.3055    4.7630 O.3     1  LIG  -0.5901  -0.6800 
20    H1       6.0112  -11.2986    0.0861 H       1  LIG   0.4043   0.4000 
21    H2       7.2232   -1.2040    5.1223 H       1  LIG   0.4012   0.4000 
22    H3       3.0021  -10.6517    0.6873 H       1  LIG   0.1550   0.1500 
23    H4       1.9851   -8.2543    0.3078 H       1  LIG   0.1571   0.1500 
24    H5       6.1961  -10.6271    2.8487 H       1  LIG   0.0723   0.0000 
25    H6       5.0450  -11.7475    2.1029 H       1  LIG   0.0392   0.0000 
26    H7       1.5873   -5.7489    0.2288 H       1  LIG   0.1643   0.1500 
27    H8       2.0779   -3.1189    0.5884 H       1  LIG   0.1646   0.1500 
28    H9       3.3340   -1.0288    1.2941 H       1  LIG   0.1578   0.1500 
29    H10      5.1147    0.6658    2.2360 H       1  LIG   0.1623   0.1500 
30    H11      8.4665   -1.0235    3.2088 H       1  LIG   0.0299   0.0000 
31    H12      7.7392    0.5723    2.9609 H       1  LIG   0.0803   0.0000 
@<TRIPOS>BOND
1     1     5     2
2     1     2     1
3     1     22    1
4     2     3     2
5     2     23    1
6     3     4     1
7     3     8     1
8     4     5     1
9     5     6     1
10    6     7     1
11    6     24    1
12    6     25    1
13    7     20    1
14    8     12    1
15    8     9     2
16    9     10    1
17    9     26    1
18    10    11    2
19    10    27    1
20    11    12    1
21    11    13    1
22    13    17    1
23    13    14    2
24    14    15    1
25    14    28    1
26    15    16    2
27    15    29    1
28    16    17    1
29    16    18    1
30    18    19    1
31    18    30    1
32    18    31    1
33    19    21    1
@<TRIPOS>SUBSTRUCTURE
1   LIG    1    
 
########## Number      : 712
########## Name        : ZINC00006873
########## Description : AM1BCC_CHARGES =   0.0002 ORIGINAL_CHARGES =  -0.0000

@<TRIPOS>MOLECULE
ZINC00006873
26    27    1     0     0    
SMALL
USER_CHARGES
****
****
@<TRIPOS>ATOM
1     C1       4.6253   -7.0036   -0.4878 C.2     1  LIG  -0.4203  -0.1356 
2     C2       4.2070   -5.7754   -0.7869 C.2     1  LIG   0.0688  -0.0410 
3     N1       2.9452   -5.3307   -0.4538 N.am    1  LIG  -0.3953  -0.4691 
4     C3       2.0426   -6.1826    0.2152 C.2     1  LIG   0.8414   0.8410 
5     O1       0.9051   -5.8172    0.5145 O.2     1  LIG  -0.6240  -0.5700 
6     N2       2.4616   -7.4605    0.5360 N.2     1  LIG  -0.7262  -0.6610 
7     C4       3.6586   -7.8734    0.2234 C.2     1  LIG   0.7640   0.4856 
8     N3       4.0456   -9.1476    0.5561 N.pl3   1  LIG  -0.9284  -0.8500 
9     C5       2.5618   -3.9634   -0.8374 C.3     1  LIG   0.2831   0.5801 
10    C6       1.4674   -3.9086   -1.8808 C.3     1  LIG   0.1078   0.2800 
11    O2       0.9084   -2.6109   -1.6743 O.3     1  LIG  -0.4259  -0.5600 
12    C7       1.1352   -2.3097   -0.2892 C.3     1  LIG   0.3039   0.5600 
13    O3       2.0526   -3.2546    0.2756 O.3     1  LIG  -0.4538  -0.5600 
14    C8      -0.1860   -2.3805    0.4737 C.3     1  LIG   0.0887   0.2800 
15    O4      -0.0109   -1.8642    1.7867 O.3     1  LIG  -0.5921  -0.6800 
16    H1       3.4053   -9.7646    1.0434 H       1  LIG   0.4524   0.4000 
17    H2       4.9656   -9.5108    0.3342 H       1  LIG   0.4386   0.4000 
18    H3      -0.8607   -1.9661    2.2482 H       1  LIG   0.3971   0.4000 
19    H4       5.6109   -7.3702   -0.7399 H       1  LIG   0.1558   0.1500 
20    H5       4.8604   -5.0846   -1.3085 H       1  LIG   0.1563   0.1500 
21    H6       3.4484   -3.4532   -1.2480 H       1  LIG   0.0776   0.0000 
22    H7       1.8422   -4.0096   -2.9032 H       1  LIG   0.0698   0.0000 
23    H8       0.6727   -4.6447   -1.7275 H       1  LIG   0.0981   0.0000 
24    H9       1.5407   -1.2905   -0.2009 H       1  LIG   0.0977   0.0000 
25    H10     -0.9576   -1.7940   -0.0355 H       1  LIG   0.0984   0.0000 
26    H11     -0.5371   -3.4146    0.5525 H       1  LIG   0.0667   0.0000 
@<TRIPOS>BOND
1     1     7     1
2     1     2     2
3     1     19    1
4     2     3     1
5     2     20    1
6     3     4     am
7     3     9     1
8     4     5     2
9     4     6     1
10    6     7     2
11    7     8     1
12    8     16    1
13    8     17    1
14    9     13    1
15    9     10    1
16    9     21    1
17    10    11    1
18    10    22    1
19    10    23    1
20    11    12    1
21    12    13    1
22    12    14    1
23    12    24    1
24    14    15    1
25    14    25    1
26    14    26    1
27    15    18    1
@<TRIPOS>SUBSTRUCTURE
1   LIG    1    
 
########## Number      : 713
########## Name        : ZINC00006892
########## Description : AM1BCC_CHARGES =  -0.0003 ORIGINAL_CHARGES =   0.0000

@<TRIPOS>MOLECULE
ZINC00006892
28    31    1     0     0    
SMALL
USER_CHARGES
****
****
@<TRIPOS>ATOM
1     C1       6.3294   -8.6264   -0.1350 C.ar    1  LIG  -0.1545  -0.1500 
2     C2       5.1043   -9.2460    0.0980 C.ar    1  LIG  -0.1102  -0.1500 
3     C3       3.9439   -8.4927    0.2939 C.ar    1  LIG  -0.1447  -0.1500 
4     C4       4.0614   -7.0986    0.2513 C.ar    1  LIG  -0.0363  -0.1516 
5     C5       5.2718   -6.4479    0.0299 C.ar    1  LIG  -0.0801   0.0000 
6     C6       6.4279   -7.2307   -0.1751 C.ar    1  LIG  -0.0834  -0.1500 
7     C7       5.0076   -5.0394    0.0512 C.2     1  LIG  -0.1358  -0.1810 
8     C8       3.6525   -4.8637    0.3090 C.2     1  LIG   0.0078  -0.2046 
9     N1       3.1022   -6.1259    0.3894 N.pl3   1  LIG  -0.1760   0.0332 
10    C9       3.0582   -3.5817    0.4178 C.ar    1  LIG  -0.0461   0.0530 
11    C10      1.6521   -3.4847    0.4706 C.ar    1  LIG  -0.1072  -0.1500 
12    C11      1.0286   -2.2401    0.5748 C.ar    1  LIG  -0.1382  -0.1500 
13    C12      1.7922   -1.0788    0.6408 C.ar    1  LIG  -0.1086  -0.1500 
14    C13      3.1845   -1.1548    0.6108 C.ar    1  LIG  -0.1218  -0.1500 
15    C14      3.8305   -2.3950    0.4976 C.ar    1  LIG   0.0236   0.1015 
16    S1       5.6205   -2.3968    0.5887 S.3     1  LIG  -0.1696  -0.3315 
17    C15      5.9952   -3.9646   -0.2378 C.3     1  LIG   0.0516   0.4110 
18    H1       2.1259   -6.3170    0.5630 H       1  LIG   0.3009   0.2700 
19    H2       7.2192   -9.2312   -0.2886 H       1  LIG   0.1310   0.1500 
20    H3       5.0477  -10.3313    0.1244 H       1  LIG   0.1308   0.1500 
21    H4       2.9882   -8.9757    0.4682 H       1  LIG   0.1336   0.1500 
22    H5       7.3909   -6.7633   -0.3598 H       1  LIG   0.1340   0.1500 
23    H6       1.0191   -4.3669    0.4179 H       1  LIG   0.1255   0.1500 
24    H7      -0.0557   -2.1784    0.6057 H       1  LIG   0.1347   0.1500 
25    H8       1.3040   -0.1121    0.7271 H       1  LIG   0.1361   0.1500 
26    H9       3.7579   -0.2333    0.6872 H       1  LIG   0.1452   0.1500 
27    H10      7.0010   -4.2677    0.0700 H       1  LIG   0.0842   0.0000 
28    H11      6.0232   -3.7847   -1.3184 H       1  LIG   0.0732   0.0000 
@<TRIPOS>BOND
1     1     6     ar
2     1     2     ar
3     1     19    1
4     2     3     ar
5     2     20    1
6     3     4     ar
7     3     21    1
8     4     9     1
9     4     5     ar
10    5     6     ar
11    5     7     1
12    6     22    1
13    7     17    1
14    7     8     2
15    8     9     1
16    8     10    1
17    9     18    1
18    10    15    ar
19    10    11    ar
20    11    12    ar
21    11    23    1
22    12    13    ar
23    12    24    1
24    13    14    ar
25    13    25    1
26    14    15    ar
27    14    26    1
28    15    16    1
29    16    17    1
30    17    27    1
31    17    28    1
@<TRIPOS>SUBSTRUCTURE
1   LIG    1    
 
########## Number      : 714
########## Name        : ZINC00006940
########## Description : AM1BCC_CHARGES =   0.9999 ORIGINAL_CHARGES =   1.0000

@<TRIPOS>MOLECULE
ZINC00006940
32    34    1     0     0    
SMALL
USER_CHARGES
****
****
@<TRIPOS>ATOM
1     C1       5.7493   -8.3374   -0.9258 C.2     1  LIG  -0.0323  -0.1500 
2     C2       4.6139   -8.6304   -1.7564 C.2     1  LIG  -0.1922  -0.1500 
3     C3       3.5508   -7.8181   -1.7418 C.2     1  LIG   0.0075  -0.0410 
4     N1       3.5047   -6.6835   -0.9407 N.am    1  LIG  -0.2650  -0.2290 
5     C4       4.5751   -6.3468   -0.1156 C.2     1  LIG   0.5733   0.4956 
6     C5       5.7576   -7.2584   -0.1357 C.2     1  LIG  -0.2664  -0.1356 
7     N2       4.6033   -5.3043    0.6558 N.2     1  LIG  -0.7421  -0.6210 
8     C6       3.5207   -4.4405    0.6917 C.2     1  LIG   0.3635   0.2710 
9     C7       2.4378   -4.6997   -0.0713 C.2     1  LIG  -0.3518  -0.1356 
10    C8       2.3743   -5.8789   -0.9644 C.2     1  LIG   0.7070   0.6156 
11    O1       1.3635   -6.0600   -1.6405 O.2     1  LIG  -0.5809  -0.5700 
12    N3       3.5576   -3.3060    1.5380 N.pl3   1  LIG  -0.6037  -0.8382 
13    C9       4.6059   -3.1499    2.5636 C.3     1  LIG   0.1707   0.3691 
14    C10      5.5441   -2.0167    2.1643 C.3     1  LIG   0.0651   0.5030 
15    C11      3.6338   -0.9253    0.9680 C.3     1  LIG   0.0631   0.5030 
16    C12      2.7376   -2.0934    1.3798 C.3     1  LIG   0.1615   0.3691 
17    H1       6.5969   -9.0130   -0.9563 H       1  LIG   0.1637   0.1500 
18    H2       4.6404   -9.5133   -2.3847 H       1  LIG   0.1768   0.1500 
19    H3       2.6857   -8.0264   -2.3625 H       1  LIG   0.2056   0.1500 
20    H4       6.6031   -7.0195    0.4984 H       1  LIG   0.1691   0.1500 
21    H5       1.5457   -4.0869   -0.0681 H       1  LIG   0.1781   0.1500 
22    H6       4.1303   -2.9244    3.5267 H       1  LIG   0.0783   0.0000 
23    H7       5.1802   -4.0700    2.7162 H       1  LIG   0.1362   0.0000 
24    H8       6.2785   -1.8038    2.9461 H       1  LIG   0.1091   0.0000 
25    H9       6.0592   -2.2179    1.2192 H       1  LIG   0.1290   0.0000 
26    H10      3.0825    0.0191    0.9489 H       1  LIG   0.1119   0.0000 
27    H11      4.1064   -1.0940   -0.0054 H       1  LIG   0.1143   0.0000 
28    H12      1.9461   -2.1992    0.6342 H       1  LIG   0.1215   0.0000 
29    H13      2.2405   -1.8708    2.3322 H       1  LIG   0.0863   0.0000 
30    N4       4.7389   -0.7659    1.9689 N.4     1  LIG  -0.7588  -0.9060 
31    H14      5.3620   -0.0034    1.6701 H       1  LIG   0.4540   0.4500 
32    H15      4.3436   -0.4684    2.8717 H       1  LIG   0.4475   0.4500 
@<TRIPOS>BOND
1     1     6     2
2     1     2     1
3     1     17    1
4     2     3     2
5     2     18    1
6     3     4     1
7     3     19    1
8     4     10    am
9     4     5     1
10    5     6     1
11    5     7     2
12    6     20    1
13    7     8     1
14    8     9     2
15    8     12    1
16    9     10    1
17    9     21    1
18    10    11    2
19    12    16    1
20    12    13    1
21    13    14    1
22    13    22    1
23    13    23    1
24    14    24    1
25    14    25    1
26    14    30    1
27    15    16    1
28    15    26    1
29    15    27    1
30    15    30    1
31    16    28    1
32    16    29    1
33    30    31    1
34    30    32    1
@<TRIPOS>SUBSTRUCTURE
1   LIG    1    
 
########## Number      : 715
########## Name        : ZINC00006963
########## Description : AM1BCC_CHARGES =   0.0001 ORIGINAL_CHARGES =  -0.0000

@<TRIPOS>MOLECULE
ZINC00006963
26    28    1     0     0    
SMALL
USER_CHARGES
****
****
@<TRIPOS>ATOM
1     C1       2.1734    4.0108   -3.5067 C.ar    1  LIG  -0.1285  -0.1500 
2     C2       1.1501    3.2353   -2.9633 C.ar    1  LIG  -0.1336  -0.1500 
3     C3       0.7675    2.0461   -3.5858 C.ar    1  LIG  -0.1250  -0.1500 
4     C4       1.4118    1.6268   -4.7566 C.ar    1  LIG  -0.0328   0.0540 
5     C5       2.4366    2.4112   -5.3004 C.ar    1  LIG  -0.1209  -0.1500 
6     C6       2.8155    3.5998   -4.6740 C.ar    1  LIG  -0.1324  -0.1500 
7     C7       1.0141    0.3905   -5.4013 C.2     1  LIG  -0.0572  -0.0540 
8     C8       0.4418    0.3734   -6.6600 C.2     1  LIG  -0.1098  -0.3016 
9     N1       0.1478   -0.9258   -6.9756 N.pl3   1  LIG  -0.2785   0.0332 
10    C9       0.5222   -1.7454   -5.9465 C.ar    1  LIG   0.4694   0.1054 
11    C10      1.0805   -0.9635   -4.9394 C.ar    1  LIG  -0.3665   0.0000 
12    C11      1.5505   -1.6423   -3.7953 C.ar    1  LIG   0.7334   0.4100 
13    N2       1.4001   -2.9959   -3.7561 N.ar    1  LIG  -0.7944  -0.6200 
14    C12      0.8285   -3.6192   -4.8073 C.ar    1  LIG   0.6817   0.4700 
15    N3       0.3644   -3.0783   -5.9450 N.ar    1  LIG  -0.7409  -0.5670 
16    N4       2.1614   -1.0060   -2.7320 N.pl3   1  LIG  -0.9516  -0.9000 
17    H1      -0.2840   -1.2376   -7.8341 H       1  LIG   0.3126   0.2700 
18    H2       2.3344   -0.0119   -2.7398 H       1  LIG   0.4354   0.4000 
19    H3       2.4815   -1.5626   -1.9516 H       1  LIG   0.4319   0.4000 
20    H4       2.4697    4.9362   -3.0211 H       1  LIG   0.1332   0.1500 
21    H5       0.6487    3.5576   -2.0551 H       1  LIG   0.1346   0.1500 
22    H6      -0.0356    1.4559   -3.1504 H       1  LIG   0.1460   0.1500 
23    H7       2.9511    2.1046   -6.2080 H       1  LIG   0.1370   0.1500 
24    H8       3.6124    4.2051   -5.0968 H       1  LIG   0.1334   0.1500 
25    H9       0.2071    1.1699   -7.3536 H       1  LIG   0.1742   0.1500 
26    H10      0.7350   -4.6963   -4.7214 H       1  LIG   0.0494   0.1500 
@<TRIPOS>BOND
1     1     6     ar
2     1     2     ar
3     1     20    1
4     2     3     ar
5     2     21    1
6     3     4     ar
7     3     22    1
8     4     5     ar
9     4     7     1
10    5     6     ar
11    5     23    1
12    6     24    1
13    7     11    1
14    7     8     2
15    8     9     1
16    8     25    1
17    9     10    1
18    9     17    1
19    10    15    ar
20    10    11    ar
21    11    12    ar
22    12    13    ar
23    12    16    1
24    13    14    ar
25    14    15    ar
26    14    26    1
27    16    18    1
28    16    19    1
@<TRIPOS>SUBSTRUCTURE
1   LIG    1    
 
########## Number      : 716
########## Name        : ZINC00007106
########## Description : AM1BCC_CHARGES =   0.9997 ORIGINAL_CHARGES =   1.0000

@<TRIPOS>MOLECULE
ZINC00007106
42    44    1     0     0    
SMALL
USER_CHARGES
****
****
@<TRIPOS>ATOM
1     C1       0.6461   11.9126    6.0270 C.3     1  LIG  -0.1338   0.0000 
2     C2       1.1417   10.5231    6.4557 C.3     1  LIG   0.1140   0.5030 
3     C3       0.5798    9.4627    5.4974 C.3     1  LIG   0.0901   0.3001 
4     N1       1.2328    8.1703    5.6223 N.pl3   1  LIG  -0.3426  -0.4771 
5     C4       1.2060    7.4260    6.8138 C.ar    1  LIG   0.0121   0.1170 
6     C5       1.8975    6.2351    6.5959 C.ar    1  LIG   0.0115   0.1170 
7     C6       2.0530    5.2843    7.5743 C.ar    1  LIG  -0.0792  -0.1500 
8     C7       1.4810    5.5669    8.8157 C.ar    1  LIG  -0.1097  -0.1500 
9     C8       0.7817    6.7781    9.0435 C.ar    1  LIG   0.0407   0.1770 
10    C9       0.6351    7.7479    8.0318 C.ar    1  LIG  -0.1534  -0.1435 
11    C10     -0.0872    9.0514    8.1944 C.3     1  LIG   0.1775   0.6465 
12    C11      1.9339   10.4121    8.8555 C.3     1  LIG   0.1676   0.6412 
13    C12      2.5219   11.7871    8.9561 C.2     1  LIG  -0.2962  -0.2882 
14    C13      2.1729   12.7567    9.8229 C.2     1  LIG  -0.0046  -0.2764 
15    C14      2.8870   14.0817    9.8195 C.3     1  LIG  -0.0905   0.1382 
16    C15      1.0716   12.6434   10.8395 C.3     1  LIG  -0.0957   0.1382 
17    Cl1      0.1245    7.0087   10.6282 Cl      1  LIG  -0.0576  -0.1770 
18    N2       2.3587    6.2251    5.2816 N.pl3   1  LIG  -0.3950  -0.5470 
19    C16      1.9557    7.4256    4.6513 C.2     1  LIG   0.5023   0.5000 
20    S1       2.3067    7.8081    3.0740 S.2     1  LIG  -0.3755  -0.3800 
21    H1       2.8931    5.4785    4.8559 H       1  LIG   0.3840   0.3700 
22    H2       0.9625   12.1362    5.0025 H       1  LIG   0.0985   0.0000 
23    H3      -0.4475   11.9701    6.0623 H       1  LIG   0.0650   0.0000 
24    H4       1.0473   12.6997    6.6724 H       1  LIG   0.0707   0.0000 
25    H5       2.2441   10.5299    6.3902 H       1  LIG   0.1164   0.0000 
26    H6      -0.5039    9.3290    5.5799 H       1  LIG   0.0731   0.0000 
27    H7       0.7404    9.8123    4.4715 H       1  LIG   0.1387   0.0000 
28    H8       2.5901    4.3597    7.4005 H       1  LIG   0.1737   0.1500 
29    H9       1.5822    4.8357    9.6156 H       1  LIG   0.1764   0.1500 
30    H10     -0.9919    9.0882    7.5783 H       1  LIG   0.1062   0.0000 
31    H11     -0.4550    9.1779    9.2174 H       1  LIG   0.1105   0.0000 
32    H12      1.6162   10.0574    9.8418 H       1  LIG   0.0998   0.0000 
33    H13      2.6847    9.7036    8.4868 H       1  LIG   0.1099   0.0000 
34    H14      3.3331   11.9864    8.2574 H       1  LIG   0.1527   0.1500 
35    H15      3.3431   14.2683   10.7973 H       1  LIG   0.0784   0.0000 
36    H16      3.6828   14.1244    9.0684 H       1  LIG   0.0614   0.0000 
37    H17      2.1827   14.8917    9.6034 H       1  LIG   0.0683   0.0000 
38    H18      1.4863   12.6969   11.8513 H       1  LIG   0.0867   0.0000 
39    H19      0.3590   13.4658   10.7147 H       1  LIG   0.0740   0.0000 
40    H20      0.5026   11.7138   10.7596 H       1  LIG   0.0242   0.0000 
41    N3       0.7111   10.3177    7.9326 N.4     1  LIG  -0.6910  -0.9590 
42    H21      0.1180   11.1143    8.2304 H       1  LIG   0.4401   0.4500 
@<TRIPOS>BOND
1     1     2     1
2     1     22    1
3     1     23    1
4     1     24    1
5     2     3     1
6     2     25    1
7     2     41    1
8     3     4     1
9     3     26    1
10    3     27    1
11    4     19    1
12    4     5     1
13    5     10    ar
14    5     6     ar
15    6     7     ar
16    6     18    1
17    7     8     ar
18    7     28    1
19    8     9     ar
20    8     29    1
21    9     10    ar
22    9     17    1
23    10    11    1
24    11    30    1
25    11    31    1
26    11    41    1
27    12    13    1
28    12    32    1
29    12    33    1
30    12    41    1
31    13    14    2
32    13    34    1
33    14    15    1
34    14    16    1
35    15    35    1
36    15    36    1
37    15    37    1
38    16    38    1
39    16    39    1
40    16    40    1
41    18    19    1
42    18    21    1
43    19    20    2
44    41    42    1
@<TRIPOS>SUBSTRUCTURE
1   LIG    1    
 
########## Number      : 717
########## Name        : ZINC00007220
########## Description : AM1BCC_CHARGES =  -0.0002 ORIGINAL_CHARGES =  -0.0000

@<TRIPOS>MOLECULE
ZINC00007220
32    34    1     0     0    
SMALL
USER_CHARGES
****
****
@<TRIPOS>ATOM
1     C1       4.3097   -7.2567   -0.4839 C.ar    1  LIG  -0.1088  -0.1500 
2     C2       5.5084   -6.6349   -0.1596 C.ar    1  LIG  -0.1515  -0.1500 
3     C3       5.5252   -5.2968    0.2542 C.ar    1  LIG  -0.0479  -0.1435 
4     C4       4.3160   -4.5654    0.3142 C.ar    1  LIG  -0.1097  -0.1435 
5     C5       3.0832   -5.2058    0.0099 C.ar    1  LIG   0.1541   0.1000 
6     C6       3.1118   -6.5492   -0.3998 C.ar    1  LIG  -0.1438  -0.1500 
7     N1       1.8748   -4.4747    0.0813 N.pl3   1  LIG  -0.6906  -0.5500 
8     C7       0.6872   -4.6658   -0.5770 C.2     1  LIG   0.7780   0.6500 
9     N2      -0.4321   -4.0671   -0.2951 N.2     1  LIG  -0.6950  -0.6960 
10    C8      -1.3627   -4.5245   -1.3299 C.3     1  LIG   0.0882   0.2460 
11    C9      -0.6727   -5.6940   -1.9830 C.3     1  LIG   0.0926   0.2800 
12    O1       0.6920   -5.5228   -1.6390 O.3     1  LIG  -0.4564  -0.4300 
13    C10      4.3347   -3.1116    0.7499 C.3     1  LIG  -0.0361   0.1435 
14    C11      5.7153   -2.4596    0.7113 C.3     1  LIG  -0.0738   0.0000 
15    C12      6.7489   -3.3681    1.3558 C.3     1  LIG  -0.0769   0.0000 
16    C13      6.8616   -4.6669    0.5659 C.3     1  LIG  -0.0365   0.1435 
17    H1       1.8820   -3.7242    0.7637 H       1  LIG   0.4567   0.4000 
18    H2       4.3040   -8.2973   -0.7957 H       1  LIG   0.1339   0.1500 
19    H3       6.4349   -7.1999   -0.2293 H       1  LIG   0.1324   0.1500 
20    H4       2.1954   -7.0867   -0.6270 H       1  LIG   0.1566   0.1500 
21    H5      -2.3289   -4.8123   -0.9049 H       1  LIG   0.0658   0.0000 
22    H6      -1.5331   -3.7138   -2.0470 H       1  LIG   0.0653   0.0000 
23    H7      -1.0192   -6.6537   -1.5855 H       1  LIG   0.0623   0.0000 
24    H8      -0.7956   -5.6940   -3.0698 H       1  LIG   0.0641   0.0000 
25    H9       3.6715   -2.5189    0.1089 H       1  LIG   0.0471   0.0000 
26    H10      3.9454   -3.0624    1.7748 H       1  LIG   0.0467   0.0000 
27    H11      6.0020   -2.2540   -0.3279 H       1  LIG   0.0462   0.0000 
28    H12      5.6810   -1.4954    1.2308 H       1  LIG   0.0432   0.0000 
29    H13      7.7243   -2.8702    1.3887 H       1  LIG   0.0433   0.0000 
30    H14      6.4598   -3.5814    2.3927 H       1  LIG   0.0465   0.0000 
31    H15      7.4808   -5.3700    1.1361 H       1  LIG   0.0512   0.0000 
32    H16      7.3743   -4.4709   -0.3844 H       1  LIG   0.0526   0.0000 
@<TRIPOS>BOND
1     1     6     ar
2     1     2     ar
3     1     18    1
4     2     3     ar
5     2     19    1
6     3     16    1
7     3     4     ar
8     4     5     ar
9     4     13    1
10    5     6     ar
11    5     7     1
12    6     20    1
13    7     8     1
14    7     17    1
15    8     12    1
16    8     9     2
17    9     10    1
18    10    11    1
19    10    21    1
20    10    22    1
21    11    12    1
22    11    23    1
23    11    24    1
24    13    14    1
25    13    25    1
26    13    26    1
27    14    15    1
28    14    27    1
29    14    28    1
30    15    16    1
31    15    29    1
32    15    30    1
33    16    31    1
34    16    32    1
@<TRIPOS>SUBSTRUCTURE
1   LIG    1    
 
########## Number      : 718
########## Name        : ZINC00007285
########## Description : AM1BCC_CHARGES =  -0.0001 ORIGINAL_CHARGES =  -0.0000

@<TRIPOS>MOLECULE
ZINC00007285
30    31    1     0     0    
SMALL
USER_CHARGES
****
****
@<TRIPOS>ATOM
1     C1       7.0220   -6.7482   -1.0947 C.3     1  LIG  -0.1109  -0.2000 
2     C2       5.7874   -7.5801   -1.2761 C.3     1  LIG  -0.1118  -0.2000 
3     C3       5.7099   -6.0771   -1.4482 C.3     1  LIG  -0.1897  -0.1900 
4     C4       5.0295   -5.2629   -0.3597 C.3     1  LIG   0.2251   0.4641 
5     N1       3.5998   -5.4802   -0.3925 N.pl3   1  LIG  -0.8344  -0.8691 
6     C5       2.5926   -4.7594    0.2058 C.ar    1  LIG   0.6871   0.4100 
7     C6       2.7468   -3.7325    1.1360 C.ar    1  LIG  -0.1982   0.1000 
8     C7       1.5578   -3.1020    1.4999 C.ar    1  LIG   0.5285   0.4870 
9     N2       0.3248   -3.4434    1.0837 N.ar    1  LIG  -0.7503  -0.6200 
10    C8       0.2617   -4.4746    0.2349 C.ar    1  LIG   0.8888   0.7200 
11    N3       1.3502   -5.1321   -0.2113 N.ar    1  LIG  -0.8029  -0.6200 
12    N4      -0.9789   -4.8826   -0.2138 N.pl3   1  LIG  -0.9200  -0.9000 
13    Cl1      1.5364   -1.7669    2.5974 Cl      1  LIG  -0.1590  -0.1770 
14    N5       3.9589   -3.2725    1.6265 N.pl3   1  LIG  -0.7831  -0.9000 
15    C9       5.5802   -5.5264   -2.8496 C.3     1  LIG   0.1588   0.3750 
16    O1       4.2390   -5.6416   -3.3099 O.3     1  LIG  -0.5921  -0.6800 
17    H1       3.2618   -6.2219   -0.9987 H       1  LIG   0.4241   0.4000 
18    H2      -1.8072   -4.4020    0.1057 H       1  LIG   0.4269   0.4000 
19    H3      -1.0458   -5.6577   -0.8571 H       1  LIG   0.4259   0.4000 
20    H4       4.7837   -3.8506    1.5970 H       1  LIG   0.3743   0.4000 
21    H5       3.9507   -2.5304    2.3168 H       1  LIG   0.3804   0.4000 
22    H6       3.6980   -5.0302   -2.7809 H       1  LIG   0.4005   0.4000 
23    H7       7.7929   -6.8212   -1.8532 H       1  LIG   0.0748   0.1000 
24    H8       7.4123   -6.6411   -0.0892 H       1  LIG   0.0767   0.1000 
25    H9       5.7236   -8.2047   -2.1595 H       1  LIG   0.0806   0.1000 
26    H10      5.3456   -8.0245   -0.3918 H       1  LIG   0.0809   0.1000 
27    H11      5.4169   -5.5569    0.6221 H       1  LIG   0.0593   0.0000 
28    H12      5.2692   -4.2067   -0.5266 H       1  LIG   0.0587   0.0000 
29    H13      5.8781   -4.4732   -2.8877 H       1  LIG   0.0314   0.0000 
30    H14      6.2143   -6.0734   -3.5555 H       1  LIG   0.0695   0.0000 
@<TRIPOS>BOND
1     1     3     1
2     1     2     1
3     1     23    1
4     1     24    1
5     2     3     1
6     2     25    1
7     2     26    1
8     3     4     1
9     3     15    1
10    4     5     1
11    4     27    1
12    4     28    1
13    5     6     1
14    5     17    1
15    6     11    ar
16    6     7     ar
17    7     8     ar
18    7     14    1
19    8     9     ar
20    8     13    1
21    9     10    ar
22    10    11    ar
23    10    12    1
24    12    18    1
25    12    19    1
26    14    20    1
27    14    21    1
28    15    16    1
29    15    29    1
30    15    30    1
31    16    22    1
@<TRIPOS>SUBSTRUCTURE
1   LIG    1    
 
########## Number      : 719
########## Name        : ZINC00007544
########## Description : AM1BCC_CHARGES =   0.0004 ORIGINAL_CHARGES =   0.0000

@<TRIPOS>MOLECULE
ZINC00007544
27    27    1     0     0    
SMALL
USER_CHARGES
****
****
@<TRIPOS>ATOM
1     C1       3.3868   -7.2535    1.1193 C.ar    1  LIG  -0.1102  -0.1500 
2     C2       4.3499   -6.5261    1.8152 C.ar    1  LIG  -0.1026  -0.1500 
3     C3       4.7594   -5.2804    1.3338 C.ar    1  LIG  -0.1231   0.0862 
4     C4       4.2168   -4.7813    0.1416 C.ar    1  LIG  -0.1618  -0.1500 
5     C5       3.2475   -5.5127   -0.5645 C.ar    1  LIG   0.0656   0.1170 
6     C6       2.8348   -6.7502   -0.0623 C.ar    1  LIG  -0.1308  -0.1500 
7     N1       2.7534   -4.9343   -1.7581 N.am    1  LIG  -0.4697  -0.5470 
8     C7       1.8093   -5.4673   -2.6281 C.2     1  LIG   0.6776   0.5690 
9     O1       1.2309   -6.5463   -2.5289 O.2     1  LIG  -0.5700  -0.5700 
10    C8       1.5348   -4.5512   -3.8046 C.3     1  LIG  -0.0389   0.2510 
11    I1       2.7533   -5.1892   -5.4101 I       1  LIG  -0.1902  -0.1900 
12    C9       5.7953   -4.5347    2.0927 C.2     1  LIG   0.6824   0.5438 
13    O2       6.6599   -5.1636    2.6951 O.2     1  LIG  -0.5137  -0.5700 
14    N2       5.6631   -3.1493    2.0811 N.am    1  LIG  -0.6102  -0.4900 
15    C10      6.5533   -2.2579    2.6765 C.2     1  LIG   0.7539   0.6900 
16    O3       7.5852   -2.5609    3.2694 O.2     1  LIG  -0.5722  -0.5700 
17    N3       6.1484   -0.9470    2.5229 N.am    1  LIG  -0.6550  -0.8000 
18    H1       3.1515   -4.0307   -2.0005 H       1  LIG   0.3209   0.3700 
19    H2       4.8590   -2.7378    1.6216 H       1  LIG   0.3156   0.3700 
20    H3       6.7067   -0.1927    2.9073 H       1  LIG   0.3165   0.3700 
21    H4       5.2964   -0.6923    2.0381 H       1  LIG   0.2895   0.3700 
22    H5       3.0622   -8.2196    1.4969 H       1  LIG   0.1457   0.1500 
23    H6       4.7640   -6.9374    2.7322 H       1  LIG   0.1593   0.1500 
24    H7       4.5606   -3.8302   -0.2586 H       1  LIG   0.1322   0.1500 
25    H8       2.0897   -7.3590   -0.5614 H       1  LIG   0.1787   0.1500 
26    H9       0.4709   -4.6231   -4.0546 H       1  LIG   0.1176   0.0000 
27    H10      1.7332   -3.5075   -3.5404 H       1  LIG   0.0933   0.0000 
@<TRIPOS>BOND
1     1     6     ar
2     1     2     ar
3     1     22    1
4     2     3     ar
5     2     23    1
6     3     4     ar
7     3     12    1
8     4     5     ar
9     4     24    1
10    5     6     ar
11    5     7     1
12    6     25    1
13    7     8     am
14    7     18    1
15    8     9     2
16    8     10    1
17    10    11    1
18    10    26    1
19    10    27    1
20    12    13    2
21    12    14    am
22    14    15    am
23    14    19    1
24    15    16    2
25    15    17    am
26    17    20    1
27    17    21    1
@<TRIPOS>SUBSTRUCTURE
1   LIG    1    
 
########## Number      : 720
########## Name        : ZINC00007601
########## Description : AM1BCC_CHARGES =   0.9999 ORIGINAL_CHARGES =   1.0000

@<TRIPOS>MOLECULE
ZINC00007601
39    39    1     0     0    
SMALL
USER_CHARGES
****
****
@<TRIPOS>ATOM
1     C1       6.7138   -9.6282    0.7055 C.3     1  LIG  -0.1335   0.0000 
2     C2       6.0483   -8.5705   -0.1868 C.3     1  LIG   0.1510   0.5030 
3     C3       7.1212   -7.7404   -0.8953 C.3     1  LIG  -0.1246   0.0000 
4     C4       5.1108   -9.2510   -1.1868 C.3     1  LIG  -0.1245   0.0000 
5     C5       4.4572   -6.5412    0.1484 C.3     1  LIG   0.0960   0.5030 
6     C6       3.7535   -5.7781    1.2758 C.3     1  LIG   0.1989   0.4235 
7     C7       3.0703   -4.5397    0.7251 C.ar    1  LIG  -0.2315  -0.1435 
8     C8       1.8999   -4.6345   -0.0401 C.ar    1  LIG  -0.0766  -0.1500 
9     C9       1.2988   -3.4888   -0.5581 C.ar    1  LIG  -0.1598  -0.1500 
10    C10      1.8602   -2.2363   -0.3135 C.ar    1  LIG   0.2085   0.0825 
11    C11      3.0284   -2.1019    0.4490 C.ar    1  LIG  -0.1739  -0.1435 
12    C12      3.6282   -3.2697    0.9522 C.ar    1  LIG  -0.0509  -0.1500 
13    C13      3.7052   -0.7769    0.6856 C.3     1  LIG   0.1756   0.4235 
14    O1       2.7508    0.2324    0.9879 O.3     1  LIG  -0.6135  -0.6800 
15    O2       1.2136   -1.1590   -0.8570 O.3     1  LIG  -0.4806  -0.5325 
16    O3       2.7725   -6.6212    1.8638 O.3     1  LIG  -0.6382  -0.6800 
17    H1       3.2486    1.0463    1.1783 H       1  LIG   0.4260   0.4000 
18    H2       1.5997   -0.3485   -0.4804 H       1  LIG   0.4597   0.4500 
19    H3       3.1700   -7.0416    2.6452 H       1  LIG   0.4559   0.4000 
20    H4       5.9676  -10.2227    1.2451 H       1  LIG   0.0673   0.0000 
21    H5       7.3197  -10.3199    0.1093 H       1  LIG   0.0966   0.0000 
22    H6       7.3737   -9.1663    1.4488 H       1  LIG   0.0645   0.0000 
23    H7       6.6857   -7.0237   -1.5991 H       1  LIG   0.0669   0.0000 
24    H8       7.7336   -7.1820   -0.1785 H       1  LIG   0.0614   0.0000 
25    H9       7.7928   -8.3865   -1.4724 H       1  LIG   0.0943   0.0000 
26    H10      4.6751   -8.5350   -1.8914 H       1  LIG   0.0659   0.0000 
27    H11      5.6529   -9.9949   -1.7820 H       1  LIG   0.0938   0.0000 
28    H12      4.2898   -9.7682   -0.6778 H       1  LIG   0.0669   0.0000 
29    H13      5.1581   -5.8959   -0.3884 H       1  LIG   0.1085   0.0000 
30    H14      3.7352   -6.9812   -0.5456 H       1  LIG   0.1150   0.0000 
31    H15      4.4787   -5.4546    2.0396 H       1  LIG   0.0585   0.0000 
32    H16      1.4476   -5.6029   -0.2401 H       1  LIG   0.1397   0.1500 
33    H17      0.3922   -3.5776   -1.1507 H       1  LIG   0.1711   0.1500 
34    H18      4.5482   -3.1876    1.5288 H       1  LIG   0.1347   0.1500 
35    H19      4.4011   -0.8380    1.5290 H       1  LIG   0.0426   0.0000 
36    H20      4.2610   -0.4838   -0.2111 H       1  LIG   0.0424   0.0000 
37    N1       5.2449   -7.6783    0.7419 N.4     1  LIG  -0.7608  -0.9060 
38    H21      4.5864   -8.2729    1.2651 H       1  LIG   0.4644   0.4500 
39    H22      5.8863   -7.2927    1.4494 H       1  LIG   0.4422   0.4500 
@<TRIPOS>BOND
1     1     2     1
2     1     20    1
3     1     21    1
4     1     22    1
5     2     3     1
6     2     4     1
7     2     37    1
8     3     23    1
9     3     24    1
10    3     25    1
11    4     26    1
12    4     27    1
13    4     28    1
14    5     6     1
15    5     29    1
16    5     30    1
17    5     37    1
18    6     7     1
19    6     16    1
20    6     31    1
21    7     12    ar
22    7     8     ar
23    8     9     ar
24    8     32    1
25    9     10    ar
26    9     33    1
27    10    11    ar
28    10    15    1
29    11    12    ar
30    11    13    1
31    12    34    1
32    13    14    1
33    13    35    1
34    13    36    1
35    14    17    1
36    15    18    1
37    16    19    1
38    37    38    1
39    37    39    1
@<TRIPOS>SUBSTRUCTURE
1   LIG    1    
 
########## Number      : 721
########## Name        : ZINC00007695
########## Description : AM1BCC_CHARGES =  -0.0002 ORIGINAL_CHARGES =   0.0000

@<TRIPOS>MOLECULE
ZINC00007695
27    27    1     0     0    
SMALL
USER_CHARGES
****
****
@<TRIPOS>ATOM
1     C1       3.4141   -7.2725    1.0831 C.ar    1  LIG  -0.1104  -0.1500 
2     C2       4.3274   -6.5212    1.8196 C.ar    1  LIG  -0.1021  -0.1500 
3     C3       4.7263   -5.2657    1.3553 C.ar    1  LIG  -0.1235   0.0862 
4     C4       4.2241   -4.7803    0.1399 C.ar    1  LIG  -0.1603  -0.1500 
5     C5       3.3052   -5.5358   -0.6072 C.ar    1  LIG   0.0638   0.1170 
6     C6       2.9020   -6.7831   -0.1221 C.ar    1  LIG  -0.1301  -0.1500 
7     N1       2.8492   -4.9698   -1.8218 N.am    1  LIG  -0.4672  -0.5470 
8     C7       1.9579   -5.5264   -2.7311 C.2     1  LIG   0.6739   0.5690 
9     O1       1.4056   -6.6209   -2.6587 O.2     1  LIG  -0.5683  -0.5700 
10    C8       1.7139   -4.6219   -3.9136 C.3     1  LIG  -0.1145   0.2910 
11    Br1      2.8891   -5.2338   -5.3287 Br      1  LIG  -0.1222  -0.2300 
12    C9       5.7090   -4.4943    2.1580 C.2     1  LIG   0.6831   0.5438 
13    O2       6.5619   -5.1014    2.7983 O.2     1  LIG  -0.5135  -0.5700 
14    N2       5.5430   -3.1127    2.1391 N.am    1  LIG  -0.6098  -0.4900 
15    C10      6.3838   -2.1993    2.7718 C.2     1  LIG   0.7544   0.6900 
16    O3       7.3960   -2.4765    3.4097 O.2     1  LIG  -0.5726  -0.5700 
17    N3       5.9535   -0.8989    2.5993 N.am    1  LIG  -0.6561  -0.8000 
18    H1       3.2342   -4.0560   -2.0467 H       1  LIG   0.3237   0.3700 
19    H2       4.7498   -2.7214    1.6444 H       1  LIG   0.3152   0.3700 
20    H3       6.4754   -0.1309    3.0068 H       1  LIG   0.3168   0.3700 
21    H4       5.1174   -0.6656    2.0773 H       1  LIG   0.2897   0.3700 
22    H5       3.0975   -8.2464    1.4472 H       1  LIG   0.1459   0.1500 
23    H6       4.7111   -6.9221    2.7544 H       1  LIG   0.1598   0.1500 
24    H7       4.5612   -3.8208   -0.2459 H       1  LIG   0.1324   0.1500 
25    H8       2.1947   -7.4103   -0.6525 H       1  LIG   0.1779   0.1500 
26    H9       0.6826   -4.7159   -4.2609 H       1  LIG   0.1189   0.0000 
27    H10      1.9458   -3.5747   -3.7088 H       1  LIG   0.0949   0.0000 
@<TRIPOS>BOND
1     1     6     ar
2     1     2     ar
3     1     22    1
4     2     3     ar
5     2     23    1
6     3     4     ar
7     3     12    1
8     4     5     ar
9     4     24    1
10    5     6     ar
11    5     7     1
12    6     25    1
13    7     8     am
14    7     18    1
15    8     9     2
16    8     10    1
17    10    11    1
18    10    26    1
19    10    27    1
20    12    13    2
21    12    14    am
22    14    15    am
23    14    19    1
24    15    16    2
25    15    17    am
26    17    20    1
27    17    21    1
@<TRIPOS>SUBSTRUCTURE
1   LIG    1    
 
########## Number      : 722
########## Name        : ZINC00007700
########## Description : AM1BCC_CHARGES =  -0.9997 ORIGINAL_CHARGES =  -1.0000

@<TRIPOS>MOLECULE
ZINC00007700
24    25    1     0     0    
SMALL
USER_CHARGES
****
****
@<TRIPOS>ATOM
1     C1       5.0724   -7.1938    0.8264 C.ar    1  LIG  -0.1741  -0.1500 
2     C2       4.5268   -8.4669    0.6808 C.ar    1  LIG  -0.1243  -0.1500 
3     C3       3.2057   -8.6397    0.2586 C.ar    1  LIG  -0.1596  -0.1500 
4     C4       2.4551   -7.4895   -0.0115 C.ar    1  LIG  -0.0583  -0.1516 
5     C5       2.9726   -6.1997    0.1236 C.ar    1  LIG  -0.0863   0.0000 
6     C6       4.3090   -6.0533    0.5522 C.ar    1  LIG  -0.0682  -0.1500 
7     C7       1.9329   -5.2802   -0.2334 C.2     1  LIG  -0.0701  -0.1810 
8     C8       0.8288   -6.0385   -0.5704 C.2     1  LIG  -0.1569  -0.3016 
9     N1       1.1529   -7.3604   -0.4337 N.pl3   1  LIG  -0.1943   0.0332 
10    C9       2.0153   -3.7869   -0.2434 C.3     1  LIG  -0.0140   0.1810 
11    C10      1.7283   -3.1824    1.1273 C.3     1  LIG  -0.1901  -0.1060 
12    C11      1.7961   -1.6539    1.1839 C.2     1  LIG   0.9074   0.9060 
13    O1       2.0912   -1.0602    0.1109 O.co2   1  LIG  -0.8525  -0.9000 
14    H1       0.5264   -8.1321   -0.6157 H       1  LIG   0.2676   0.2700 
15    H2       6.1018   -7.0826    1.1569 H       1  LIG   0.1187   0.1500 
16    H3       5.1363   -9.3402    0.8990 H       1  LIG   0.1125   0.1500 
17    H4       2.7816   -9.6319    0.1462 H       1  LIG   0.1177   0.1500 
18    H5       4.7474   -5.0666    0.6717 H       1  LIG   0.1489   0.1500 
19    H6      -0.1609   -5.7480   -0.8951 H       1  LIG   0.1615   0.1500 
20    H7       3.0116   -3.4818   -0.5874 H       1  LIG   0.0581   0.0000 
21    H8       1.3043   -3.3906   -0.9799 H       1  LIG   0.0574   0.0000 
22    H9       0.7277   -3.4848    1.4627 H       1  LIG   0.0231   0.0000 
23    H10      2.4423   -3.5736    1.8634 H       1  LIG   0.0259   0.0000 
24    O2       1.5430   -1.1684    2.3244 O.co2   1  LIG  -0.8498  -0.9000 
@<TRIPOS>BOND
1     1     6     ar
2     1     2     ar
3     1     15    1
4     2     3     ar
5     2     16    1
6     3     4     ar
7     3     17    1
8     4     9     1
9     4     5     ar
10    5     6     ar
11    5     7     1
12    6     18    1
13    7     8     2
14    7     10    1
15    8     9     1
16    8     19    1
17    9     14    1
18    10    11    1
19    10    20    1
20    10    21    1
21    11    12    1
22    11    22    1
23    11    23    1
24    12    13    2
25    12    24    1
@<TRIPOS>SUBSTRUCTURE
1   LIG    1    
 
########## Number      : 723
########## Name        : ZINC00007753
########## Description : AM1BCC_CHARGES =   0.0001 ORIGINAL_CHARGES =   0.0000

@<TRIPOS>MOLECULE
ZINC00007753
33    36    1     0     0    
SMALL
USER_CHARGES
****
****
@<TRIPOS>ATOM
1     C1      -5.6789    3.8711   -1.8532 C.3     1  LIG  -0.1578   0.1435 
2     C2      -4.6797    2.9069   -1.2899 C.ar    1  LIG   0.4770   0.1665 
3     C3      -4.3655    1.7461   -1.9895 C.ar    1  LIG  -0.3028  -0.1500 
4     C4      -3.4353    0.8717   -1.4416 C.ar    1  LIG  -0.0069  -0.1500 
5     C5      -2.8527    1.1859   -0.2170 C.ar    1  LIG  -0.3201   0.0862 
6     C6      -1.8564    0.2879    0.4076 C.2     1  LIG   0.5904   0.4694 
7     O1      -1.5090   -0.7585   -0.1250 O.2     1  LIG  -0.5717  -0.5700 
8     C7      -1.2865    0.7030    1.7156 C.2     1  LIG  -0.3108  -0.1356 
9     C8      -1.6832    1.8617    2.2785 C.2     1  LIG   0.2319   0.1460 
10    N1      -2.6187    2.6720    1.6657 N.pl3   1  LIG  -0.7147  -0.6000 
11    C9      -3.2123    2.3675    0.4336 C.ar    1  LIG   0.6731   0.4100 
12    N2      -4.1184    3.2237   -0.0959 N.ar    1  LIG  -0.7288  -0.6200 
13    C10     -1.1471    2.2808    3.5509 C.2     1  LIG  -0.0828  -0.0460 
14    C11     -1.9629    2.5151    4.6373 C.2     1  LIG  -0.1419  -0.1100 
15    S1      -1.0843    2.9839    6.0186 S.3     1  LIG   0.0722  -0.0800 
16    C12      0.4195    2.9023    5.1828 C.ar    1  LIG  -0.0885   0.0400 
17    C13      0.2482    2.5131    3.8489 C.ar    1  LIG  -0.0574   0.0000 
18    C14      1.4105    2.4228    3.0375 C.ar    1  LIG  -0.0903  -0.1500 
19    C15      2.6752    2.7013    3.5634 C.ar    1  LIG  -0.1246  -0.1500 
20    C16      2.8135    3.0754    4.8908 C.ar    1  LIG  -0.1184  -0.1500 
21    C17      1.6939    3.1826    5.7164 C.ar    1  LIG  -0.0928  -0.1500 
22    H1      -2.8913    3.5376    2.1128 H       1  LIG   0.4650   0.4000 
23    H2      -6.6495    3.3809   -1.9774 H       1  LIG   0.0552   0.0000 
24    H3      -5.8134    4.7282   -1.1854 H       1  LIG   0.0650   0.0000 
25    H4      -5.3380    4.2458   -2.8234 H       1  LIG   0.0561   0.0000 
26    H5      -4.8322    1.5211   -2.9432 H       1  LIG   0.1484   0.1500 
27    H6      -3.1769   -0.0396   -1.9729 H       1  LIG   0.1649   0.1500 
28    H7      -0.5638    0.0372    2.1742 H       1  LIG   0.1690   0.1500 
29    H8      -3.0395    2.4226    4.6931 H       1  LIG   0.1783   0.1500 
30    H9       1.3292    2.1372    1.9914 H       1  LIG   0.1495   0.1500 
31    H10      3.5522    2.6247    2.9264 H       1  LIG   0.1382   0.1500 
32    H11      3.8000    3.2905    5.2927 H       1  LIG   0.1371   0.1500 
33    H12      1.8095    3.4812    6.7547 H       1  LIG   0.1391   0.1500 
@<TRIPOS>BOND
1     1     2     1
2     1     23    1
3     1     24    1
4     1     25    1
5     2     12    ar
6     2     3     ar
7     3     4     ar
8     3     26    1
9     4     5     ar
10    4     27    1
11    5     11    ar
12    5     6     1
13    6     7     2
14    6     8     1
15    8     9     2
16    8     28    1
17    9     10    1
18    9     13    1
19    10    11    1
20    10    22    1
21    11    12    ar
22    13    17    1
23    13    14    2
24    14    15    1
25    14    29    1
26    15    16    1
27    16    21    ar
28    16    17    ar
29    17    18    ar
30    18    19    ar
31    18    30    1
32    19    20    ar
33    19    31    1
34    20    21    ar
35    20    32    1
36    21    33    1
@<TRIPOS>SUBSTRUCTURE
1   LIG    1    
 
########## Number      : 724
########## Name        : ZINC00007886
########## Description : AM1BCC_CHARGES =   0.0001 ORIGINAL_CHARGES =  -0.0000

@<TRIPOS>MOLECULE
ZINC00007886
17    17    1     0     0    
SMALL
USER_CHARGES
****
****
@<TRIPOS>ATOM
1     C1       4.0165   -7.6729   -1.7906 C.3     1  LIG  -0.1769   0.0610 
2     C2       2.6592   -7.0242   -1.6241 C.2     1  LIG   0.6719   0.5690 
3     O1       1.7172   -7.7385   -1.2668 O.2     1  LIG  -0.4835  -0.5700 
4     N1       2.5552   -5.6449   -1.8875 N.am    1  LIG  -0.4168  -0.2290 
5     C3       3.6523   -4.8881   -2.2880 C.2     1  LIG  -0.0237  -0.0410 
6     C4       3.5882   -3.5829   -2.5449 C.2     1  LIG  -0.0027   0.1639 
7     C5       2.3267   -2.8491   -2.4173 C.2     1  LIG   0.7016   0.6156 
8     O2       2.2459   -1.6487   -2.6487 O.2     1  LIG  -0.5706  -0.5700 
9     N2       1.2705   -3.6441   -2.0179 N.am    1  LIG  -0.5875  -0.4900 
10    C6       1.2961   -5.0140   -1.7391 C.2     1  LIG   0.8043   0.6900 
11    O3       0.2549   -5.5760   -1.3914 O.2     1  LIG  -0.5667  -0.5700 
12    F1       4.6641   -2.8729   -2.9310 F       1  LIG  -0.1287  -0.1495 
13    H1       0.3716   -3.1843   -1.9139 H       1  LIG   0.3618   0.3700 
14    H2       3.9396   -8.7386   -1.5522 H       1  LIG   0.0925   0.0000 
15    H3       4.3576   -7.5845   -2.8255 H       1  LIG   0.0732   0.0000 
16    H4       4.7399   -7.2268   -1.1028 H       1  LIG   0.0730   0.0000 
17    H5       4.6097   -5.3808   -2.3982 H       1  LIG   0.1789   0.1500 
@<TRIPOS>BOND
1     1     2     1
2     1     14    1
3     1     15    1
4     1     16    1
5     2     3     2
6     2     4     am
7     4     10    am
8     4     5     1
9     5     6     2
10    5     17    1
11    6     7     1
12    6     12    1
13    7     8     2
14    7     9     am
15    9     10    am
16    9     13    1
17    10    11    2
@<TRIPOS>SUBSTRUCTURE
1   LIG    1    
 
########## Number      : 725
########## Name        : ZINC00007993
########## Description : AM1BCC_CHARGES =  -1.0002 ORIGINAL_CHARGES =  -1.0000

@<TRIPOS>MOLECULE
ZINC00007993
16    15    1     0     0    
SMALL
USER_CHARGES
****
****
@<TRIPOS>ATOM
1     C1       3.2609   -8.9047    0.1004 C.3     1  LIG  -0.0542   0.0000 
2     C2       4.6196   -8.3359   -0.3183 C.3     1  LIG  -0.1860  -0.1060 
3     C3       5.5486   -8.2766    0.8987 C.3     1  LIG  -0.0604   0.0000 
4     C4       5.2317   -9.2194   -1.4103 C.3     1  LIG  -0.0605   0.0000 
5     C5       4.5160   -6.8946   -0.8925 C.2     1  LIG   0.9202   0.9060 
6     O1       3.3545   -6.3981   -0.9359 O.co2   1  LIG  -0.8427  -0.9000 
7     H1       2.5688   -8.9514   -0.7482 H       1  LIG   0.0315   0.0000 
8     H2       3.3626   -9.9198    0.5009 H       1  LIG  -0.0202   0.0000 
9     H3       2.7917   -8.2883    0.8758 H       1  LIG   0.0307   0.0000 
10    H4       6.5543   -7.9327    0.6311 H       1  LIG   0.0423   0.0000 
11    H5       5.1595   -7.5887    1.6584 H       1  LIG   0.0177   0.0000 
12    H6       5.6539   -9.2639    1.3626 H       1  LIG  -0.0154   0.0000 
13    H7       6.2349   -8.8829   -1.6961 H       1  LIG   0.0427   0.0000 
14    H8       5.3196  -10.2585   -1.0733 H       1  LIG  -0.0154   0.0000 
15    H9       4.6141   -9.2115   -2.3159 H       1  LIG   0.0175   0.0000 
16    O2       5.6097   -6.3718   -1.2561 O.co2   1  LIG  -0.8480  -0.9000 
@<TRIPOS>BOND
1     1     2     1
2     1     7     1
3     1     8     1
4     1     9     1
5     2     3     1
6     2     4     1
7     2     5     1
8     3     10    1
9     3     11    1
10    3     12    1
11    4     13    1
12    4     14    1
13    4     15    1
14    5     6     2
15    5     16    1
@<TRIPOS>SUBSTRUCTURE
1   LIG    1    
 
########## Number      : 726
########## Name        : ZINC00008028
########## Description : AM1BCC_CHARGES =  -0.0001 ORIGINAL_CHARGES =   0.0000

@<TRIPOS>MOLECULE
ZINC00008028
26    27    1     0     0    
SMALL
USER_CHARGES
****
****
@<TRIPOS>ATOM
1     C1       4.7669   -7.9197   -0.7009 C.3     1  LIG   0.1089   0.2800 
2     O1       3.4558   -7.5278   -0.3136 O.3     1  LIG  -0.3115  -0.3625 
3     C2       3.2022   -6.1828   -0.2229 C.ar    1  LIG   0.0925   0.0825 
4     C3       4.1421   -5.1680   -0.4809 C.ar    1  LIG  -0.1516  -0.1500 
5     C4       3.7959   -3.8155   -0.3369 C.ar    1  LIG  -0.0079   0.1110 
6     C5       2.5143   -3.4749    0.0712 C.ar    1  LIG  -0.0488  -0.1435 
7     C6       1.5930   -4.4863    0.3193 C.ar    1  LIG  -0.1764   0.0862 
8     C7       1.9003   -5.8302    0.1634 C.ar    1  LIG   0.1619   0.0825 
9     O2       0.9718   -6.7913    0.4557 O.3     1  LIG  -0.3191  -0.3625 
10    C8       0.2736   -7.1816   -0.7275 C.3     1  LIG   0.1211   0.2800 
11    C9       0.3422   -3.8664    0.7440 C.2     1  LIG   0.5895   0.4228 
12    O3      -0.6705   -4.4741    1.0411 O.2     1  LIG  -0.5051  -0.5700 
13    C10      0.5000   -2.3677    0.7578 C.3     1  LIG  -0.1856   0.0610 
14    C11      1.9422   -2.1099    0.3002 C.3     1  LIG  -0.0381   0.1435 
15    Br1      5.0993   -2.4906   -0.6954 Br      1  LIG  -0.0767  -0.1110 
16    H1       4.7954   -9.0134   -0.7219 H       1  LIG   0.0728   0.0000 
17    H2       5.0044   -7.5620   -1.7082 H       1  LIG   0.0332   0.0000 
18    H3       5.5115   -7.5819    0.0274 H       1  LIG   0.0399   0.0000 
19    H4       5.1542   -5.4135   -0.7905 H       1  LIG   0.1552   0.1500 
20    H5      -0.4958   -7.9038   -0.4387 H       1  LIG   0.0685   0.0000 
21    H6      -0.2239   -6.3270   -1.1991 H       1  LIG   0.0380   0.0000 
22    H7       0.9451   -7.6698   -1.4418 H       1  LIG   0.0353   0.0000 
23    H8      -0.2180   -1.9120    0.0695 H       1  LIG   0.0798   0.0000 
24    H9       0.3355   -1.9878    1.7706 H       1  LIG   0.0819   0.0000 
25    H10      2.4986   -1.5733    1.0757 H       1  LIG   0.0718   0.0000 
26    H11      1.9510   -1.5201   -0.6223 H       1  LIG   0.0704   0.0000 
@<TRIPOS>BOND
1     1     2     1
2     1     16    1
3     1     17    1
4     1     18    1
5     2     3     1
6     3     8     ar
7     3     4     ar
8     4     5     ar
9     4     19    1
10    5     6     ar
11    5     15    1
12    6     14    1
13    6     7     ar
14    7     8     ar
15    7     11    1
16    8     9     1
17    9     10    1
18    10    20    1
19    10    21    1
20    10    22    1
21    11    12    2
22    11    13    1
23    13    14    1
24    13    23    1
25    13    24    1
26    14    25    1
27    14    26    1
@<TRIPOS>SUBSTRUCTURE
1   LIG    1    
 
########## Number      : 727
########## Name        : ZINC00008046
########## Description : AM1BCC_CHARGES =  -0.0000 ORIGINAL_CHARGES =   0.0000

@<TRIPOS>MOLECULE
ZINC00008046
26    26    1     0     0    
SMALL
USER_CHARGES
****
****
@<TRIPOS>ATOM
1     C1       5.0126   -8.6782   -2.3996 C.3     1  LIG  -0.1959   0.0610 
2     C2       3.7807   -8.2348   -1.6553 C.2     1  LIG   0.5638   0.4946 
3     O1       2.7621   -8.9221   -1.6452 O.2     1  LIG  -0.5459  -0.5700 
4     C3       3.8543   -6.9159   -0.9651 C.2     1  LIG  -0.2693  -0.1356 
5     C4       2.8008   -6.4559   -0.2752 C.2     1  LIG  -0.0190  -0.1784 
6     C5       2.7687   -5.1629    0.4305 C.ar    1  LIG  -0.0885   0.0284 
7     C6       3.9109   -4.5932    1.0113 C.ar    1  LIG  -0.1003  -0.1500 
8     C7       3.8280   -3.3799    1.6941 C.ar    1  LIG  -0.1443  -0.1500 
9     C8       2.5993   -2.7376    1.8075 C.ar    1  LIG   0.1273   0.0825 
10    C9       1.4397   -3.2871    1.2530 C.ar    1  LIG   0.0390   0.0825 
11    C10      1.5323   -4.5049    0.5700 C.ar    1  LIG  -0.1400  -0.1500 
12    O2       0.2931   -2.5602    1.4394 O.3     1  LIG  -0.3488  -0.3625 
13    C11     -0.9048   -3.0917    0.8859 C.3     1  LIG   0.1209   0.2800 
14    O3       2.5619   -1.5488    2.4859 O.3     1  LIG  -0.4915  -0.5325 
15    H1       1.6387   -1.2387    2.4741 H       1  LIG   0.4395   0.4500 
16    H2       5.1514   -9.7535   -2.2552 H       1  LIG   0.0678   0.0000 
17    H3       4.8917   -8.4581   -3.4631 H       1  LIG   0.0673   0.0000 
18    H4       5.9059   -8.1727   -2.0227 H       1  LIG   0.0539   0.0000 
19    H5       4.7787   -6.3580   -1.0597 H       1  LIG   0.1350   0.1500 
20    H6       1.8824   -7.0369   -0.2257 H       1  LIG   0.1467   0.1500 
21    H7       4.8780   -5.0861    0.9509 H       1  LIG   0.1395   0.1500 
22    H8       4.7198   -2.9461    2.1374 H       1  LIG   0.1557   0.1500 
23    H9       0.6496   -4.9610    0.1289 H       1  LIG   0.1441   0.1500 
24    H10     -1.7172   -2.3969    1.1201 H       1  LIG   0.0686   0.0000 
25    H11     -0.8363   -3.1677   -0.2043 H       1  LIG   0.0370   0.0000 
26    H12     -1.1534   -4.0579    1.3371 H       1  LIG   0.0374   0.0000 
@<TRIPOS>BOND
1     1     2     1
2     1     16    1
3     1     17    1
4     1     18    1
5     2     3     2
6     2     4     1
7     4     5     2
8     4     19    1
9     5     6     1
10    5     20    1
11    6     11    ar
12    6     7     ar
13    7     8     ar
14    7     21    1
15    8     9     ar
16    8     22    1
17    9     10    ar
18    9     14    1
19    10    11    ar
20    10    12    1
21    11    23    1
22    12    13    1
23    13    24    1
24    13    25    1
25    13    26    1
26    14    15    1
@<TRIPOS>SUBSTRUCTURE
1   LIG    1    
 
########## Number      : 728
########## Name        : ZINC00008107
########## Description : AM1BCC_CHARGES =   0.0002 ORIGINAL_CHARGES =   0.0000

@<TRIPOS>MOLECULE
ZINC00008107
32    34    1     0     0    
SMALL
USER_CHARGES
****
****
@<TRIPOS>ATOM
1     C1       0.5598   -8.5087   -1.0491 C.3     1  LIG  -0.0599   0.1435 
2     C2      -0.2858   -7.3983   -1.6226 C.ar    1  LIG  -0.0604  -0.1435 
3     C3      -1.6042   -7.2842   -1.1618 C.ar    1  LIG  -0.1043  -0.1500 
4     C4      -2.4412   -6.2839   -1.6417 C.ar    1  LIG  -0.1080  -0.1500 
5     C5      -1.9951   -5.3825   -2.6100 C.ar    1  LIG   0.2008   0.1790 
6     C6      -0.6789   -5.4869   -3.1024 C.ar    1  LIG  -0.1571   0.0862 
7     C7       0.2005   -6.4756   -2.5859 C.ar    1  LIG   0.0228   0.1015 
8     S1       1.9290   -6.6133   -3.0861 S.3     1  LIG  -0.1159  -0.2030 
9     C8       2.6625   -5.2064   -2.2610 C.ar    1  LIG   0.0098   0.1015 
10    C9       2.4378   -4.9329   -0.9112 C.ar    1  LIG  -0.2287  -0.1500 
11    C10      3.0596   -3.8260   -0.3529 C.ar    1  LIG   0.3880   0.1600 
12    N1       3.8783   -2.9937   -1.0313 N.ar    1  LIG  -0.6599  -0.6200 
13    C11      4.0868   -3.2890   -2.3320 C.ar    1  LIG   0.3868   0.1600 
14    C12      3.5150   -4.3705   -2.9843 C.ar    1  LIG  -0.1983  -0.1500 
15    C13     -0.3139   -4.5235   -4.1860 C.2     1  LIG   0.7134   0.5438 
16    O1       0.7437   -4.5611   -4.8024 O.2     1  LIG  -0.6028  -0.5700 
17    N2      -1.2833   -3.5838   -4.4907 N.am    1  LIG  -0.5081  -0.4900 
18    C14     -2.5427   -3.5431   -3.9323 C.2     1  LIG   0.6681   0.5600 
19    N3      -2.9107   -4.4026   -3.0328 N.2     1  LIG  -0.6839  -0.6290 
20    N4      -3.3702   -2.5559   -4.3849 N.pl3   1  LIG  -0.8868  -0.8500 
21    H1      -1.0550   -2.9034   -5.2070 H       1  LIG   0.3374   0.3700 
22    H2      -3.0768   -1.8888   -5.0882 H       1  LIG   0.4054   0.4000 
23    H3      -4.3118   -2.4678   -4.0197 H       1  LIG   0.4276   0.4000 
24    H4      -0.0169   -9.1412   -0.3650 H       1  LIG   0.0421   0.0000 
25    H5       0.9312   -9.1601   -1.8467 H       1  LIG   0.0589   0.0000 
26    H6       1.4001   -8.0997   -0.4798 H       1  LIG   0.0626   0.0000 
27    H7      -1.9911   -7.9747   -0.4156 H       1  LIG   0.1408   0.1500 
28    H8      -3.4568   -6.2125   -1.2585 H       1  LIG   0.1551   0.1500 
29    H9       1.8021   -5.5567   -0.2931 H       1  LIG   0.1469   0.1500 
30    H10      2.9105   -3.5750    0.6925 H       1  LIG   0.0212   0.1500 
31    H11      4.7501   -2.6107   -2.8589 H       1  LIG   0.0232   0.1500 
32    H12      3.7294   -4.5441   -4.0341 H       1  LIG   0.1634   0.1500 
@<TRIPOS>BOND
1     1     2     1
2     1     24    1
3     1     25    1
4     1     26    1
5     2     7     ar
6     2     3     ar
7     3     4     ar
8     3     27    1
9     4     5     ar
10    4     28    1
11    5     19    1
12    5     6     ar
13    6     7     ar
14    6     15    1
15    7     8     1
16    8     9     1
17    9     14    ar
18    9     10    ar
19    10    11    ar
20    10    29    1
21    11    12    ar
22    11    30    1
23    12    13    ar
24    13    14    ar
25    13    31    1
26    14    32    1
27    15    16    2
28    15    17    am
29    17    18    1
30    17    21    1
31    18    19    2
32    18    20    1
33    20    22    1
34    20    23    1
@<TRIPOS>SUBSTRUCTURE
1   LIG    1    
 
########## Number      : 729
########## Name        : ZINC00008115
########## Description : AM1BCC_CHARGES =   0.0002 ORIGINAL_CHARGES =   0.0000

@<TRIPOS>MOLECULE
ZINC00008115
32    36    1     0     0    
SMALL
USER_CHARGES
****
****
@<TRIPOS>ATOM
1     C1       0.5915   -5.8800   -6.1161 C.ar    1  LIG  -0.1156  -0.1500 
2     C2       0.1340   -6.5258   -4.9800 C.ar    1  LIG  -0.1246  -0.1500 
3     C3       0.5814   -6.1117   -3.7271 C.ar    1  LIG  -0.1493  -0.1500 
4     C4       1.4811   -5.0610   -3.5782 C.ar    1  LIG   0.3829   0.3100 
5     C5       1.9612   -4.3875   -4.7246 C.ar    1  LIG  -0.1206   0.0000 
6     C6       1.4937   -4.8242   -5.9905 C.ar    1  LIG  -0.1138  -0.1500 
7     C7       2.8889   -3.3079   -4.5296 C.ar    1  LIG   0.0262   0.0000 
8     C8       3.4473   -2.5513   -5.5722 C.ar    1  LIG  -0.2359  -0.1500 
9     C9       4.3303   -1.5346   -5.2676 C.ar    1  LIG   0.4104   0.1600 
10    N1       4.7019   -1.2104   -4.0142 N.ar    1  LIG  -0.6652  -0.6200 
11    C10      4.1933   -1.9071   -2.9803 C.ar    1  LIG   0.4993   0.3100 
12    C11      3.2831   -2.9621   -3.2185 C.ar    1  LIG  -0.2505   0.0000 
13    C12      2.7298   -3.7118   -2.1858 C.ar    1  LIG   0.3919   0.3962 
14    N2       1.8571   -4.7303   -2.3379 N.ar    1  LIG  -0.5944  -0.6200 
15    C13      3.0959   -3.4071   -0.7892 C.2     1  LIG   0.4773   0.3976 
16    O1       2.6235   -4.0513    0.1379 O.2     1  LIG  -0.4884  -0.5700 
17    C14      4.0498   -2.3003   -0.5528 C.ar    1  LIG  -0.1515   0.0862 
18    C15      4.5632   -1.5912   -1.6589 C.ar    1  LIG  -0.1101   0.0000 
19    C16      5.4679   -0.5475   -1.3692 C.ar    1  LIG  -0.0998  -0.1500 
20    C17      5.8365   -0.2321   -0.0569 C.ar    1  LIG  -0.1122  -0.1500 
21    C18      5.3103   -0.9527    1.0088 C.ar    1  LIG  -0.1296  -0.1500 
22    C19      4.4153   -1.9891    0.7650 C.ar    1  LIG  -0.0810  -0.1500 
23    H1       0.2508   -6.1927   -7.0987 H       1  LIG   0.1387   0.1500 
24    H2      -0.5687   -7.3495   -5.0629 H       1  LIG   0.1411   0.1500 
25    H3       0.2111   -6.6310   -2.8446 H       1  LIG   0.1588   0.1500 
26    H4       1.8263   -4.3462   -6.9081 H       1  LIG   0.1364   0.1500 
27    H5       3.2126   -2.7331   -6.6149 H       1  LIG   0.1497   0.1500 
28    H6       4.7781   -0.9327   -6.0519 H       1  LIG   0.0283   0.1500 
29    H7       5.9058    0.0444   -2.1718 H       1  LIG   0.1607   0.1500 
30    H8       6.5360    0.5785    0.1280 H       1  LIG   0.1393   0.1500 
31    H9       5.5966   -0.7077    2.0274 H       1  LIG   0.1411   0.1500 
32    H10      4.0107   -2.5453    1.6066 H       1  LIG   0.1606   0.1500 
@<TRIPOS>BOND
1     1     6     ar
2     1     2     ar
3     1     23    1
4     2     3     ar
5     2     24    1
6     3     4     ar
7     3     25    1
8     4     14    ar
9     4     5     ar
10    5     6     ar
11    5     7     ar
12    6     26    1
13    7     12    ar
14    7     8     ar
15    8     9     ar
16    8     27    1
17    9     10    ar
18    9     28    1
19    10    11    ar
20    11    18    1
21    11    12    ar
22    12    13    ar
23    13    14    ar
24    13    15    1
25    15    16    2
26    15    17    1
27    17    22    ar
28    17    18    ar
29    18    19    ar
30    19    20    ar
31    19    29    1
32    20    21    ar
33    20    30    1
34    21    22    ar
35    21    31    1
36    22    32    1
@<TRIPOS>SUBSTRUCTURE
1   LIG    1    
 
########## Number      : 730
########## Name        : ZINC00008139
########## Description : AM1BCC_CHARGES =  -0.0003 ORIGINAL_CHARGES =   0.0000

@<TRIPOS>MOLECULE
ZINC00008139
52    55    1     0     0    
SMALL
USER_CHARGES
****
****
@<TRIPOS>ATOM
1     C1      -4.8200    3.3556    2.5915 C.3     1  LIG  -0.0916   0.0000 
2     C2      -3.3212    3.4490    2.3579 C.3     1  LIG  -0.1009   0.0000 
3     C3      -2.9939    4.3881    1.1970 C.3     1  LIG   0.0962   0.3001 
4     N1      -1.5480    4.4744    0.9643 N.am    1  LIG  -0.4914  -0.6602 
5     C4      -0.8203    5.5110    1.7114 C.3     1  LIG   0.0976   0.3001 
6     C5      -0.8618    6.8616    0.9959 C.3     1  LIG  -0.1053   0.0000 
7     C6      -0.0914    7.9214    1.7662 C.3     1  LIG  -0.0943   0.0000 
8     C7      -0.9558    3.5585    0.0832 C.2     1  LIG   0.6565   0.5690 
9     O1      -1.5961    2.6634   -0.4753 O.2     1  LIG  -0.5868  -0.5700 
10    C8       0.5423    3.7136   -0.1437 C.3     1  LIG  -0.0695   0.2420 
11    C9       1.0452    2.8589   -1.2637 C.2     1  LIG  -0.0857  -0.1810 
12    C10      1.7226    1.5790   -1.1300 C.ar    1  LIG  -0.0892   0.0000 
13    C11      2.0900    0.7823   -0.0234 C.ar    1  LIG  -0.0779  -0.1500 
14    C12      2.7509   -0.4335   -0.2360 C.ar    1  LIG  -0.1630  -0.1500 
15    C13      3.0500   -0.8674   -1.5256 C.ar    1  LIG  -0.1065  -0.1500 
16    C14      2.6996   -0.1044   -2.6423 C.ar    1  LIG  -0.1517  -0.1500 
17    C15      2.0399    1.1076   -2.4146 C.ar    1  LIG   0.0030  -0.1516 
18    N2       1.5759    2.0518   -3.2551 N.pl3   1  LIG  -0.0988   0.0476 
19    C16      0.9715    3.1041   -2.6103 C.2     1  LIG   0.0007  -0.2046 
20    C17      0.4512    4.1089   -3.4239 C.ar    1  LIG  -0.0254   0.0530 
21    C18     -0.2348    5.3256   -3.2643 C.ar    1  LIG  -0.0971  -0.1500 
22    C19     -0.5761    6.0318   -4.4167 C.ar    1  LIG  -0.1242  -0.1500 
23    C20     -0.2416    5.5330   -5.6881 C.ar    1  LIG  -0.1269  -0.1500 
24    C21      0.4391    4.3179   -5.8347 C.ar    1  LIG  -0.1060  -0.1500 
25    C22      0.7860    3.6027   -4.6963 C.ar    1  LIG  -0.1107  -0.1435 
26    C23      1.5194    2.2680   -4.6810 C.3     1  LIG   0.1012   0.3991 
27    H1      -5.0324    2.6799    3.4259 H       1  LIG   0.0357   0.0000 
28    H2      -5.2411    4.3368    2.8331 H       1  LIG   0.0281   0.0000 
29    H3      -5.3321    2.9705    1.7039 H       1  LIG   0.0394   0.0000 
30    H4      -2.8342    3.7999    3.2751 H       1  LIG   0.0350   0.0000 
31    H5      -2.9233    2.4479    2.1541 H       1  LIG   0.0596   0.0000 
32    H6      -3.4797    4.0237    0.2841 H       1  LIG   0.0733   0.0000 
33    H7      -3.3834    5.3942    1.3882 H       1  LIG   0.0374   0.0000 
34    H8      -1.2686    5.5932    2.7084 H       1  LIG   0.0490   0.0000 
35    H9       0.2177    5.2026    1.8631 H       1  LIG   0.0448   0.0000 
36    H10     -0.4402    6.7702   -0.0109 H       1  LIG   0.0419   0.0000 
37    H11     -1.8995    7.1913    0.8710 H       1  LIG   0.0482   0.0000 
38    H12     -0.1359    8.8800    1.2398 H       1  LIG   0.0391   0.0000 
39    H13     -0.5128    8.0631    2.7665 H       1  LIG   0.0354   0.0000 
40    H14      0.9615    7.6411    1.8725 H       1  LIG   0.0346   0.0000 
41    H15      0.7802    4.7589   -0.3635 H       1  LIG   0.0650   0.0000 
42    H16      1.0570    3.4443    0.7852 H       1  LIG   0.0731   0.0000 
43    H17      1.8638    1.1013    0.9899 H       1  LIG   0.1305   0.1500 
44    H18      3.0326   -1.0456    0.6168 H       1  LIG   0.1288   0.1500 
45    H19      3.5635   -1.8153   -1.6667 H       1  LIG   0.1286   0.1500 
46    H20      2.9320   -0.4443   -3.6459 H       1  LIG   0.1329   0.1500 
47    H21     -0.4949    5.7041   -2.2836 H       1  LIG   0.1402   0.1500 
48    H22     -1.1071    6.9764   -4.3340 H       1  LIG   0.1343   0.1500 
49    H23     -0.5187    6.1011   -6.5729 H       1  LIG   0.1346   0.1500 
50    H24      0.6869    3.9472   -6.8243 H       1  LIG   0.1375   0.1500 
51    H25      2.5368    2.3469   -5.0705 H       1  LIG   0.0692   0.0000 
52    H26      0.9365    1.4668   -5.1408 H       1  LIG   0.0712   0.0000 
@<TRIPOS>BOND
1     1     2     1
2     1     27    1
3     1     28    1
4     1     29    1
5     2     3     1
6     2     30    1
7     2     31    1
8     3     4     1
9     3     32    1
10    3     33    1
11    4     5     1
12    4     8     am
13    5     6     1
14    5     34    1
15    5     35    1
16    6     7     1
17    6     36    1
18    6     37    1
19    7     38    1
20    7     39    1
21    7     40    1
22    8     9     2
23    8     10    1
24    10    11    1
25    10    41    1
26    10    42    1
27    11    19    2
28    11    12    1
29    12    17    ar
30    12    13    ar
31    13    14    ar
32    13    43    1
33    14    15    ar
34    14    44    1
35    15    16    ar
36    15    45    1
37    16    17    ar
38    16    46    1
39    17    18    1
40    18    26    1
41    18    19    1
42    19    20    1
43    20    25    ar
44    20    21    ar
45    21    22    ar
46    21    47    1
47    22    23    ar
48    22    48    1
49    23    24    ar
50    23    49    1
51    24    25    ar
52    24    50    1
53    25    26    1
54    26    51    1
55    26    52    1
@<TRIPOS>SUBSTRUCTURE
1   LIG    1    
 
########## Number      : 731
########## Name        : ZINC00008492
########## Description : AM1BCC_CHARGES =   0.0000 ORIGINAL_CHARGES =  -0.0000

@<TRIPOS>MOLECULE
ZINC00008492
18    19    1     0     0    
SMALL
USER_CHARGES
****
****
@<TRIPOS>ATOM
1     C1       5.0827   -5.8146   -3.3039 C.ar    1  LIG  -0.0871  -0.1500 
2     C2       5.0244   -7.1691   -2.9825 C.ar    1  LIG  -0.1537  -0.1500 
3     C3       4.1923   -7.6216   -1.9428 C.ar    1  LIG  -0.1122   0.0000 
4     C4       4.1167   -8.9787   -1.6011 C.ar    1  LIG  -0.0834  -0.1500 
5     C5       3.2857   -9.3931   -0.5697 C.ar    1  LIG  -0.2422  -0.1500 
6     C6       2.5528   -8.4268    0.0895 C.ar    1  LIG   0.4121   0.1600 
7     N1       2.5965   -7.1084   -0.2083 N.ar    1  LIG  -0.6740  -0.6200 
8     C7       3.4053   -6.7084   -1.2114 C.ar    1  LIG   0.3306   0.3100 
9     C8       3.4895   -5.3616   -1.5612 C.ar    1  LIG   0.0959   0.0825 
10    C9       4.3121   -4.9048   -2.5908 C.ar    1  LIG  -0.1716  -0.1500 
11    O1       2.7474   -4.4245   -0.8858 O.3     1  LIG  -0.4964  -0.5325 
12    H1       2.2344   -4.9007   -0.2077 H       1  LIG   0.4449   0.4500 
13    H2       5.7274   -5.4722   -4.1080 H       1  LIG   0.1371   0.1500 
14    H3       5.6328   -7.8711   -3.5488 H       1  LIG   0.1360   0.1500 
15    H4       4.7052   -9.7199   -2.1370 H       1  LIG   0.1410   0.1500 
16    H5       3.2149  -10.4383   -0.2922 H       1  LIG   0.1457   0.1500 
17    H6       1.8866   -8.6927    0.9039 H       1  LIG   0.0235   0.1500 
18    H7       4.3528   -3.8475   -2.8361 H       1  LIG   0.1538   0.1500 
@<TRIPOS>BOND
1     1     10    ar
2     1     2     ar
3     1     13    1
4     2     3     ar
5     2     14    1
6     3     8     ar
7     3     4     ar
8     4     5     ar
9     4     15    1
10    5     6     ar
11    5     16    1
12    6     7     ar
13    6     17    1
14    7     8     ar
15    8     9     ar
16    9     10    ar
17    9     11    1
18    10    18    1
19    11    12    1
@<TRIPOS>SUBSTRUCTURE
1   LIG    1    
 
########## Number      : 732
########## Name        : ZINC00008563
########## Description : AM1BCC_CHARGES =   0.0003 ORIGINAL_CHARGES =   0.0000

@<TRIPOS>MOLECULE
ZINC00008563
28    28    1     0     0    
SMALL
USER_CHARGES
****
****
@<TRIPOS>ATOM
1     C1       6.9330   -9.0424   -1.1674 C.3     1  LIG  -0.1264   0.0000 
2     C2       5.5852   -9.2793   -0.5138 C.3     1  LIG   0.1398   0.2800 
3     O1       4.6667   -8.2388   -0.8900 O.3     1  LIG  -0.4384  -0.4300 
4     C3       4.6663   -7.1124   -0.1333 C.2     1  LIG   0.6480   0.6338 
5     O2       5.3726   -6.8901    0.8375 O.2     1  LIG  -0.5479  -0.5700 
6     C4       3.6658   -6.1436   -0.6503 C.ar    1  LIG  -0.1076   0.0862 
7     C5       2.8794   -6.4075   -1.7751 C.ar    1  LIG  -0.0956  -0.1500 
8     C6       1.9570   -5.4582   -2.2144 C.ar    1  LIG  -0.1233  -0.1500 
9     C7       1.8103   -4.2429   -1.5399 C.ar    1  LIG  -0.1230  -0.1500 
10    C8       2.5881   -3.9637   -0.4140 C.ar    1  LIG   0.0542   0.1170 
11    C9       3.5160   -4.9224    0.0241 C.ar    1  LIG  -0.1291  -0.1500 
12    N1       2.5089   -2.7628    0.3307 N.am    1  LIG  -0.4633  -0.5470 
13    C10      1.6668   -1.6814    0.1028 C.2     1  LIG   0.6734   0.5690 
14    O3       0.8214   -1.5686   -0.7809 O.2     1  LIG  -0.5737  -0.5700 
15    C11      1.8735   -0.5783    1.1110 C.3     1  LIG  -0.1134   0.2910 
16    Br1      0.5073   -0.8066    2.4673 Br      1  LIG  -0.1252  -0.2300 
17    H1       3.1400   -2.7038    1.1259 H       1  LIG   0.3268   0.3700 
18    H2       7.6265   -9.8548   -0.9328 H       1  LIG   0.0465   0.0000 
19    H3       6.8259   -8.9717   -2.2548 H       1  LIG   0.0456   0.0000 
20    H4       7.3722   -8.0986   -0.8288 H       1  LIG   0.0568   0.0000 
21    H5       5.1615  -10.2251   -0.8664 H       1  LIG   0.0646   0.0000 
22    H6       5.6756   -9.3476    0.5762 H       1  LIG   0.0625   0.0000 
23    H7       2.9638   -7.3394   -2.3271 H       1  LIG   0.1573   0.1500 
24    H8       1.3463   -5.6646   -3.0897 H       1  LIG   0.1432   0.1500 
25    H9       1.0788   -3.5434   -1.9277 H       1  LIG   0.1778   0.1500 
26    H10      4.1267   -4.7129    0.9008 H       1  LIG   0.1563   0.1500 
27    H11      2.8484   -0.6206    1.6010 H       1  LIG   0.0969   0.0000 
28    H12      1.7315    0.3986    0.6436 H       1  LIG   0.1175   0.0000 
@<TRIPOS>BOND
1     1     2     1
2     1     18    1
3     1     19    1
4     1     20    1
5     2     3     1
6     2     21    1
7     2     22    1
8     3     4     1
9     4     5     2
10    4     6     1
11    6     11    ar
12    6     7     ar
13    7     8     ar
14    7     23    1
15    8     9     ar
16    8     24    1
17    9     10    ar
18    9     25    1
19    10    11    ar
20    10    12    1
21    11    26    1
22    12    13    am
23    12    17    1
24    13    14    2
25    13    15    1
26    15    16    1
27    15    27    1
28    15    28    1
@<TRIPOS>SUBSTRUCTURE
1   LIG    1    
 
########## Number      : 733
########## Name        : ZINC00008629
########## Description : AM1BCC_CHARGES =   1.0001 ORIGINAL_CHARGES =   1.0000

@<TRIPOS>MOLECULE
ZINC00008629
40    43    1     0     0    
SMALL
USER_CHARGES
****
****
@<TRIPOS>ATOM
1     C1       0.2857    5.2331    5.2569 C.ar    1  LIG  -0.1474  -0.1500 
2     C2      -0.3255    5.3721    6.4979 C.ar    1  LIG  -0.0615  -0.1500 
3     C3      -1.6604    5.7574    6.5684 C.ar    1  LIG  -0.1492  -0.1500 
4     C4      -2.3872    5.9847    5.3946 C.ar    1  LIG   0.1315   0.0825 
5     C5      -1.7997    5.8576    4.1309 C.ar    1  LIG  -0.2307   0.0000 
6     C6      -0.4407    5.4797    4.0880 C.ar    1  LIG  -0.0360  -0.1500 
7     C7      -2.5371    6.1297    2.9801 C.ar    1  LIG   0.6268   0.3100 
8     C8      -3.8982    6.3565    3.1243 C.ar    1  LIG  -0.5486  -0.1435 
9     C9      -4.5985    6.5766    1.9475 C.ar    1  LIG   0.5067   0.1600 
10    N1      -4.0358    6.6286    0.7259 N.ar    1  LIG  -0.7410  -0.6200 
11    C10     -2.7123    6.4161    0.6719 C.ar    1  LIG   0.9399   0.7200 
12    N2      -1.9575    6.1587    1.7602 N.ar    1  LIG  -0.7582  -0.6200 
13    N3      -2.0904    6.4563   -0.5602 N.pl3   1  LIG  -0.9146  -0.9000 
14    C11     -4.5821    6.1875    4.4733 C.3     1  LIG   0.4696   0.9265 
15    O1      -3.6685    6.4292    5.5597 O.3     1  LIG  -0.3281  -0.3625 
16    C12     -5.5619    8.5250    4.7240 C.3     1  LIG   0.1104   0.5030 
17    C13     -6.8789    9.2872    4.7729 C.3     1  LIG  -0.1047   0.0000 
18    C14     -7.7454    8.8404    5.9451 C.3     1  LIG  -0.0965   0.0000 
19    C15     -7.9567    7.3307    5.9322 C.3     1  LIG  -0.1056   0.0000 
20    C16     -6.6353    6.5773    5.8742 C.3     1  LIG   0.1119   0.5030 
21    H1      -2.6364    6.6445   -1.3882 H       1  LIG   0.4692   0.4000 
22    H2      -1.0956    6.2966   -0.6218 H       1  LIG   0.4693   0.4000 
23    H3       1.3296    4.9391    5.1942 H       1  LIG   0.1615   0.1500 
24    H4       0.2389    5.1899    7.4077 H       1  LIG   0.1595   0.1500 
25    H5      -2.1322    5.8836    7.5394 H       1  LIG   0.1612   0.1500 
26    H6       0.0736    5.3684    3.1347 H       1  LIG   0.1705   0.1500 
27    H7      -5.6747    6.7096    1.9308 H       1  LIG   0.0181   0.1500 
28    H8      -4.9149    5.1340    4.4943 H       1  LIG   0.1078   0.0000 
29    H9      -4.9521    8.7152    5.6139 H       1  LIG   0.1076   0.0000 
30    H10     -4.9975    8.8008    3.8289 H       1  LIG   0.1006   0.0000 
31    H11     -6.6781   10.3614    4.8534 H       1  LIG   0.0966   0.0000 
32    H12     -7.4270    9.1350    3.8347 H       1  LIG   0.0645   0.0000 
33    H13     -7.2651    9.1338    6.8867 H       1  LIG   0.0667   0.0000 
34    H14     -8.7140    9.3514    5.9070 H       1  LIG   0.0867   0.0000 
35    H15     -8.5117    7.0296    6.8278 H       1  LIG   0.0982   0.0000 
36    H16     -8.5745    7.0566    5.0679 H       1  LIG   0.0643   0.0000 
37    H17     -6.8120    5.5026    5.7630 H       1  LIG   0.0931   0.0000 
38    H18     -6.0234    6.7601    6.7642 H       1  LIG   0.1140   0.0000 
39    N4      -5.8474    7.0380    4.6636 N.4     1  LIG  -0.7178  -0.9590 
40    H19     -6.4558    6.8678    3.8542 H       1  LIG   0.4338   0.4500 
@<TRIPOS>BOND
1     1     6     ar
2     1     2     ar
3     1     23    1
4     2     3     ar
5     2     24    1
6     3     4     ar
7     3     25    1
8     4     15    1
9     4     5     ar
10    5     6     ar
11    5     7     1
12    6     26    1
13    7     12    ar
14    7     8     ar
15    8     9     ar
16    8     14    1
17    9     10    ar
18    9     27    1
19    10    11    ar
20    11    12    ar
21    11    13    1
22    13    21    1
23    13    22    1
24    14    15    1
25    14    28    1
26    14    39    1
27    16    17    1
28    16    29    1
29    16    30    1
30    16    39    1
31    17    18    1
32    17    31    1
33    17    32    1
34    18    19    1
35    18    33    1
36    18    34    1
37    19    20    1
38    19    35    1
39    19    36    1
40    20    37    1
41    20    38    1
42    20    39    1
43    39    40    1
@<TRIPOS>SUBSTRUCTURE
1   LIG    1    
 
########## Number      : 734
########## Name        : ZINC00008630
########## Description : AM1BCC_CHARGES =   0.0002 ORIGINAL_CHARGES =  -0.0000

@<TRIPOS>MOLECULE
ZINC00008630
34    35    1     0     0    
SMALL
USER_CHARGES
****
****
@<TRIPOS>ATOM
1     C1       5.9775   -9.1851   -1.9447 C.3     1  LIG   0.1138   0.2800 
2     O1       5.3322   -9.2863   -0.6808 O.3     1  LIG  -0.3277  -0.3625 
3     C2       5.2498   -8.1396    0.0633 C.ar    1  LIG   0.1270   0.0825 
4     C3       5.7410   -6.8867   -0.3077 C.ar    1  LIG  -0.2042  -0.1500 
5     C4       5.5912   -5.7909    0.5487 C.ar    1  LIG  -0.0822  -0.1500 
6     C5       4.9453   -5.9300    1.7833 C.ar    1  LIG  -0.1113  -0.1435 
7     C6       4.4611   -7.1892    2.1538 C.ar    1  LIG  -0.0811  -0.1500 
8     C7       4.6107   -8.2830    1.2986 C.ar    1  LIG  -0.1560  -0.1500 
9     C8       4.8048   -4.7494    2.7090 C.3     1  LIG  -0.1177   0.2045 
10    C9       6.0446   -4.5210    3.5529 C.2     1  LIG   0.6100   0.4228 
11    O2       6.7401   -5.4318    3.9953 O.2     1  LIG  -0.5511  -0.5700 
12    C10      6.3626   -3.1355    3.9646 C.ar    1  LIG  -0.3166   0.0862 
13    C11      6.4675   -2.8249    5.3276 C.ar    1  LIG   0.2475   0.0825 
14    C12      6.7431   -1.5201    5.7375 C.ar    1  LIG  -0.2944  -0.1500 
15    C13      6.9350   -0.5291    4.7774 C.ar    1  LIG   0.2166   0.0825 
16    C14      6.8617   -0.8248    3.4182 C.ar    1  LIG  -0.2939  -0.1500 
17    C15      6.5810   -2.1317    3.0143 C.ar    1  LIG   0.2279   0.0825 
18    O3       6.5524   -2.4326    1.6803 O.3     1  LIG  -0.4981  -0.5325 
19    O4       7.2099    0.7592    5.1412 O.3     1  LIG  -0.4892  -0.5325 
20    O5       6.3018   -3.7554    6.3180 O.3     1  LIG  -0.4979  -0.5325 
21    H1       6.7419   -1.6263    1.1704 H       1  LIG   0.4308   0.4500 
22    H2       7.2322    0.8101    6.1122 H       1  LIG   0.4295   0.4500 
23    H3       6.2826   -4.6441    5.9219 H       1  LIG   0.4546   0.4500 
24    H4       5.9603  -10.1761   -2.4085 H       1  LIG   0.0657   0.0000 
25    H5       5.4414   -8.4981   -2.6079 H       1  LIG   0.0315   0.0000 
26    H6       7.0257   -8.8895   -1.8303 H       1  LIG   0.0344   0.0000 
27    H7       6.2473   -6.7256   -1.2541 H       1  LIG   0.1361   0.1500 
28    H8       5.9848   -4.8247    0.2423 H       1  LIG   0.1379   0.1500 
29    H9       3.9665   -7.3294    3.1117 H       1  LIG   0.1342   0.1500 
30    H10      4.2260   -9.2530    1.6046 H       1  LIG   0.1491   0.1500 
31    H11      4.5431   -3.8629    2.1234 H       1  LIG   0.0837   0.0000 
32    H12      3.9669   -4.9120    3.3986 H       1  LIG   0.0736   0.0000 
33    H13      6.8114   -1.2876    6.7966 H       1  LIG   0.1598   0.1500 
34    H14      7.0303   -0.0399    2.6861 H       1  LIG   0.1579   0.1500 
@<TRIPOS>BOND
1     1     2     1
2     1     24    1
3     1     25    1
4     1     26    1
5     2     3     1
6     3     8     ar
7     3     4     ar
8     4     5     ar
9     4     27    1
10    5     6     ar
11    5     28    1
12    6     7     ar
13    6     9     1
14    7     8     ar
15    7     29    1
16    8     30    1
17    9     10    1
18    9     31    1
19    9     32    1
20    10    11    2
21    10    12    1
22    12    17    ar
23    12    13    ar
24    13    14    ar
25    13    20    1
26    14    15    ar
27    14    33    1
28    15    16    ar
29    15    19    1
30    16    17    ar
31    16    34    1
32    17    18    1
33    18    21    1
34    19    22    1
35    20    23    1
@<TRIPOS>SUBSTRUCTURE
1   LIG    1    
 
########## Number      : 735
########## Name        : ZINC00008634
########## Description : AM1BCC_CHARGES =  -0.0001 ORIGINAL_CHARGES =  -0.0000

@<TRIPOS>MOLECULE
ZINC00008634
32    36    1     0     0    
SMALL
USER_CHARGES
****
****
@<TRIPOS>ATOM
1     C1      -0.6363    2.1241   -0.3322 C.3     1  LIG  -0.0997   0.0000 
2     C2       0.5590    1.3676    0.3045 C.3     1  LIG  -0.1070   0.1800 
3     C3       1.0507    0.5748   -0.8387 C.2     1  LIG   0.3954   0.0065 
4     N1       2.1329   -0.1016   -1.1321 N.2     1  LIG  -0.5881  -0.5653 
5     C4       1.8767   -0.5798   -2.4054 C.2     1  LIG   0.2793   0.1412 
6     C5       0.6198   -0.1791   -2.8729 C.2     1  LIG  -0.2361  -0.2366 
7     N2       0.1346    0.5459   -1.8478 N.pl3   1  LIG  -0.1682   0.0476 
8     C6      -1.0690    1.2936   -1.5561 C.3     1  LIG   0.0405   0.2556 
9     C7       0.0319   -0.4967   -4.1541 C.2     1  LIG   0.6553   0.7400 
10    O1      -1.0728   -0.1362   -4.5387 O.2     1  LIG  -0.5369  -0.5700 
11    C8       0.9585   -1.3107   -4.9071 C.2     1  LIG  -0.2360  -0.2366 
12    C9       2.2242   -1.7407   -4.4922 C.2     1  LIG   0.2794   0.1412 
13    N3       2.8532   -2.5078   -5.4574 N.2     1  LIG  -0.5880  -0.5653 
14    C10      1.9827   -2.5385   -6.4352 C.2     1  LIG   0.3955   0.0065 
15    N4       0.8493   -1.8414   -6.1392 N.pl3   1  LIG  -0.1681   0.0476 
16    C11     -0.1281   -1.8492   -7.2056 C.3     1  LIG   0.0401   0.2556 
17    C12      0.7066   -2.3616   -8.3955 C.3     1  LIG  -0.0997   0.0000 
18    C13      1.9060   -3.1320   -7.7839 C.3     1  LIG  -0.1066   0.1800 
19    C14      2.7865   -1.4030   -3.1912 C.2     1  LIG   0.4277   0.7420 
20    O2       3.8894   -1.7665   -2.8053 O.2     1  LIG  -0.4611  -0.5700 
21    H1      -0.2954    3.1115   -0.6706 H       1  LIG   0.0639   0.0000 
22    H2      -1.4545    2.2864    0.3759 H       1  LIG   0.0644   0.0000 
23    H3       1.3090    2.0598    0.6950 H       1  LIG   0.0814   0.0000 
24    H4       0.2162    0.7088    1.1085 H       1  LIG   0.0814   0.0000 
25    H5      -1.8577    0.5759   -1.3137 H       1  LIG   0.0756   0.0000 
26    H6      -1.3398    1.9114   -2.4151 H       1  LIG   0.0745   0.0000 
27    H7      -0.9231   -2.5458   -6.9251 H       1  LIG   0.0748   0.0000 
28    H8      -0.5161   -0.8402   -7.3614 H       1  LIG   0.0754   0.0000 
29    H9       0.1212   -2.9769   -9.0854 H       1  LIG   0.0645   0.0000 
30    H10      1.0858   -1.5024   -8.9645 H       1  LIG   0.0636   0.0000 
31    H11      2.8182   -2.9812   -8.3666 H       1  LIG   0.0816   0.0000 
32    H12      1.6865   -4.2023   -7.7197 H       1  LIG   0.0811   0.0000 
@<TRIPOS>BOND
1     1     8     1
2     1     2     1
3     1     21    1
4     1     22    1
5     2     3     1
6     2     23    1
7     2     24    1
8     3     7     1
9     3     4     2
10    4     5     1
11    5     19    1
12    5     6     2
13    6     7     1
14    6     9     1
15    7     8     1
16    8     25    1
17    8     26    1
18    9     10    2
19    9     11    1
20    11    15    1
21    11    12    2
22    12    13    1
23    12    19    1
24    13    14    2
25    14    18    1
26    14    15    1
27    15    16    1
28    16    17    1
29    16    27    1
30    16    28    1
31    17    18    1
32    17    29    1
33    17    30    1
34    18    31    1
35    18    32    1
36    19    20    2
@<TRIPOS>SUBSTRUCTURE
1   LIG    1    
 
########## Number      : 736
########## Name        : ZINC00008635
########## Description : AM1BCC_CHARGES =  -0.0000 ORIGINAL_CHARGES =   0.0000

@<TRIPOS>MOLECULE
ZINC00008635
44    48    1     0     0    
SMALL
USER_CHARGES
****
****
@<TRIPOS>ATOM
1     C1      -2.9509    4.3013    0.1796 C.3     1  LIG   0.0301   0.2556 
2     N1      -1.6728    4.7836    0.6531 N.pl3   1  LIG  -0.0759   0.0476 
3     C2      -1.4291    5.2099    1.9298 C.2     1  LIG  -0.0473  -0.3016 
4     C3      -0.1026    5.5865    2.0181 C.2     1  LIG  -0.2234  -0.0540 
5     C4       0.4738    5.3968    0.7188 C.ar    1  LIG  -0.0699   0.0000 
6     C5      -0.5318    4.8867   -0.1124 C.ar    1  LIG  -0.0502  -0.1516 
7     C6      -0.3041    4.5792   -1.4635 C.ar    1  LIG  -0.1375  -0.1500 
8     C7       0.9721    4.8029   -1.9844 C.ar    1  LIG  -0.1169  -0.1500 
9     C8       1.9867    5.3202   -1.1870 C.ar    1  LIG  -0.1502  -0.1500 
10    C9       1.7518    5.6230    0.1587 C.ar    1  LIG  -0.0914  -0.1500 
11    C10      0.4807    6.0746    3.2550 C.ar    1  LIG   0.3851   0.3640 
12    C11      1.7778    5.7764    3.6283 C.ar    1  LIG   0.2892   0.1600 
13    N2       2.3231    6.2300    4.7788 N.ar    1  LIG  -0.6408  -0.6200 
14    C12      1.5354    7.0001    5.5632 C.ar    1  LIG   0.3847   0.3640 
15    C13      0.2329    7.2843    5.1980 C.ar    1  LIG   0.2895   0.1600 
16    N3      -0.3125    6.8306    4.0476 N.ar    1  LIG  -0.6413  -0.6200 
17    C14      2.1191    7.4892    6.7995 C.2     1  LIG  -0.2234  -0.0540 
18    C15      3.0060    6.7340    7.5425 C.2     1  LIG  -0.0475  -0.3016 
19    N4       3.3635    7.4531    8.6498 N.pl3   1  LIG  -0.0757   0.0476 
20    C16      2.7396    8.6816    8.6451 C.ar    1  LIG  -0.0499  -0.1516 
21    C17      1.9535    8.7368    7.4868 C.ar    1  LIG  -0.0704   0.0000 
22    C18      1.2228    9.9197    7.2320 C.ar    1  LIG  -0.0914  -0.1500 
23    C19      1.2842   10.9856    8.1363 C.ar    1  LIG  -0.1501  -0.1500 
24    C20      2.0634   10.8969    9.2842 C.ar    1  LIG  -0.1168  -0.1500 
25    C21      2.8060    9.7464    9.5582 C.ar    1  LIG  -0.1374  -0.1500 
26    C22      4.2730    6.9865    9.6722 C.3     1  LIG   0.0299   0.2556 
27    H1      -3.6781    4.3247    0.9953 H       1  LIG   0.0574   0.0000 
28    H2      -3.2863    4.9511   -0.6328 H       1  LIG   0.0479   0.0000 
29    H3      -2.8241    3.2743   -0.1723 H       1  LIG   0.0486   0.0000 
30    H4      -2.2135    5.2026    2.6763 H       1  LIG   0.1793   0.1500 
31    H5      -1.0934    4.1820   -2.0938 H       1  LIG   0.1323   0.1500 
32    H6       1.1717    4.5739   -3.0281 H       1  LIG   0.1302   0.1500 
33    H7       2.9717    5.4944   -1.6119 H       1  LIG   0.1310   0.1500 
34    H8       2.5588    6.0368    0.7565 H       1  LIG   0.1376   0.1500 
35    H9       2.4314    5.1496    3.0332 H       1  LIG   0.0351   0.1500 
36    H10     -0.4358    7.8724    5.8155 H       1  LIG   0.0351   0.1500 
37    H11      3.4016    5.7399    7.3753 H       1  LIG   0.1793   0.1500 
38    H12      0.6152   10.0195    6.3372 H       1  LIG   0.1377   0.1500 
39    H13      0.7189   11.8919    7.9362 H       1  LIG   0.1309   0.1500 
40    H14      2.1003   11.7348    9.9757 H       1  LIG   0.1302   0.1500 
41    H15      3.4179    9.6869   10.4526 H       1  LIG   0.1324   0.1500 
42    H16      4.6181    5.9791    9.4256 H       1  LIG   0.0575   0.0000 
43    H17      5.1258    7.6689    9.7141 H       1  LIG   0.0492   0.0000 
44    H18      3.7414    6.9710   10.6270 H       1  LIG   0.0472   0.0000 
@<TRIPOS>BOND
1     1     2     1
2     1     27    1
3     1     28    1
4     1     29    1
5     2     6     1
6     2     3     1
7     3     4     2
8     3     30    1
9     4     5     1
10    4     11    1
11    5     10    ar
12    5     6     ar
13    6     7     ar
14    7     8     ar
15    7     31    1
16    8     9     ar
17    8     32    1
18    9     10    ar
19    9     33    1
20    10    34    1
21    11    16    ar
22    11    12    ar
23    12    13    ar
24    12    35    1
25    13    14    ar
26    14    15    ar
27    14    17    1
28    15    16    ar
29    15    36    1
30    17    21    1
31    17    18    2
32    18    19    1
33    18    37    1
34    19    20    1
35    19    26    1
36    20    25    ar
37    20    21    ar
38    21    22    ar
39    22    23    ar
40    22    38    1
41    23    24    ar
42    23    39    1
43    24    25    ar
44    24    40    1
45    25    41    1
46    26    42    1
47    26    43    1
48    26    44    1
@<TRIPOS>SUBSTRUCTURE
1   LIG    1    
 
########## Number      : 737
########## Name        : ZINC00008639
########## Description : AM1BCC_CHARGES =   0.0001 ORIGINAL_CHARGES =   0.0000

@<TRIPOS>MOLECULE
ZINC00008639
49    52    1     0     0    
SMALL
USER_CHARGES
****
****
@<TRIPOS>ATOM
1     C1      -4.5080    8.0870   -2.7002 C.3     1  LIG  -0.1035   0.0000 
2     C2      -5.4586    7.2844   -1.7869 C.3     1  LIG  -0.0447   0.0000 
3     C3      -6.8175    8.0101   -1.7723 C.3     1  LIG  -0.0782   0.0000 
4     C4      -7.5726    7.9374   -0.4450 C.3     1  LIG  -0.0742   0.0000 
5     C5      -7.3465    6.6322    0.3222 C.3     1  LIG  -0.0369   0.0000 
6     C6      -7.7617    5.3838   -0.5382 C.3     1  LIG  -0.0704   0.0000 
7     C7      -6.5802    4.3808   -0.4601 C.3     1  LIG  -0.0589   0.0000 
8     C8      -5.9115    4.8808    0.7886 C.3     1  LIG  -0.0666   0.0000 
9     C9      -5.8749    6.3999    0.6765 C.3     1  LIG  -0.1475   0.0610 
10    C10     -4.9358    7.1830   -0.3330 C.3     1  LIG  -0.1329   0.0610 
11    C11     -3.5266    6.6119   -0.2228 C.2     1  LIG   0.4907   0.5090 
12    C12     -3.0391    6.4077    1.2035 C.2     1  LIG   0.4909   0.5090 
13    O1      -1.8885    6.6952    1.4873 O.2     1  LIG  -0.4632  -0.5700 
14    C13     -4.0910    5.8202    2.1398 C.3     1  LIG  -0.2435   0.1220 
15    C14     -4.5932    4.4440    1.5083 C.3     1  LIG   0.0052   0.1382 
16    C15     -3.5193    3.6245    0.7827 C.2     1  LIG  -0.1243  -0.2764 
17    C16     -2.4093    3.2095    1.4204 C.2     1  LIG  -0.2095  -0.3000 
18    C17     -3.7313    3.1554   -0.6284 C.3     1  LIG  -0.0630   0.1382 
19    C18     -5.3568    6.7114    2.0331 C.2     1  LIG   0.5792   0.4480 
20    O2      -5.7744    7.5283    2.8291 O.2     1  LIG  -0.4826  -0.5700 
21    C19     -3.5650    5.7146    3.5625 C.3     1  LIG  -0.0818   0.0000 
22    O3      -2.7471    6.3678   -1.1276 O.2     1  LIG  -0.4762  -0.5700 
23    C20     -9.0691    4.7779   -0.0127 C.3     1  LIG  -0.0912   0.0000 
24    H1      -4.9071    8.2403    0.0037 H       1  LIG   0.0831   0.0000 
25    H2      -5.0036    8.3299   -3.6474 H       1  LIG   0.0371   0.0000 
26    H3      -4.2001    9.0272   -2.2302 H       1  LIG   0.0344   0.0000 
27    H4      -3.6111    7.5219   -2.9631 H       1  LIG   0.0649   0.0000 
28    H5      -5.5267    6.2938   -2.2532 H       1  LIG   0.0592   0.0000 
29    H6      -6.6980    9.0727   -2.0225 H       1  LIG   0.0463   0.0000 
30    H7      -7.4390    7.5969   -2.5768 H       1  LIG   0.0430   0.0000 
31    H8      -7.2655    8.7786    0.1902 H       1  LIG   0.0503   0.0000 
32    H9      -8.6434    8.0788   -0.6365 H       1  LIG   0.0483   0.0000 
33    H10     -7.9781    6.7193    1.2217 H       1  LIG   0.0658   0.0000 
34    H11     -7.9726    5.6255   -1.5890 H       1  LIG   0.0598   0.0000 
35    H12     -6.9140    3.3417   -0.3782 H       1  LIG   0.0536   0.0000 
36    H13     -5.9561    4.4684   -1.3480 H       1  LIG   0.0560   0.0000 
37    H14     -6.6200    4.5142    1.5628 H       1  LIG   0.0499   0.0000 
38    H15     -4.9343    3.7241    2.2800 H       1  LIG   0.0678   0.0000 
39    H16     -1.6631    2.5980    0.9221 H       1  LIG   0.1228   0.1500 
40    H17     -2.2163    3.4410    2.4594 H       1  LIG   0.1161   0.1500 
41    H18     -2.8879    2.5603   -0.9978 H       1  LIG   0.0457   0.0000 
42    H19     -4.6149    2.5139   -0.6898 H       1  LIG   0.0425   0.0000 
43    H20     -3.8375    3.9963   -1.3157 H       1  LIG   0.0564   0.0000 
44    H21     -3.4063    6.7113    3.9915 H       1  LIG   0.0642   0.0000 
45    H22     -4.2839    5.1983    4.2078 H       1  LIG   0.0465   0.0000 
46    H23     -2.6086    5.1908    3.6260 H       1  LIG   0.0573   0.0000 
47    H24     -9.3539    3.9038   -0.6077 H       1  LIG   0.0379   0.0000 
48    H25     -8.9766    4.4594    1.0307 H       1  LIG   0.0354   0.0000 
49    H26     -9.8829    5.5080   -0.0743 H       1  LIG   0.0389   0.0000 
@<TRIPOS>BOND
1     1     2     1
2     1     25    1
3     1     26    1
4     1     27    1
5     2     10    1
6     2     3     1
7     2     28    1
8     3     4     1
9     3     29    1
10    3     30    1
11    4     5     1
12    4     31    1
13    4     32    1
14    5     9     1
15    5     6     1
16    5     33    1
17    6     7     1
18    6     23    1
19    6     34    1
20    7     8     1
21    7     35    1
22    7     36    1
23    8     15    1
24    8     9     1
25    8     37    1
26    9     19    1
27    9     10    1
28    10    24    1
29    10    11    1
30    11    12    1
31    11    22    2
32    12    13    2
33    12    14    1
34    14    15    1
35    14    19    1
36    14    21    1
37    15    16    1
38    15    38    1
39    16    17    2
40    16    18    1
41    17    39    1
42    17    40    1
43    18    41    1
44    18    42    1
45    18    43    1
46    19    20    2
47    21    44    1
48    21    45    1
49    21    46    1
50    23    47    1
51    23    48    1
52    23    49    1
@<TRIPOS>SUBSTRUCTURE
1   LIG    1    
 
########## Number      : 738
########## Name        : ZINC00008657
########## Description : AM1BCC_CHARGES =   0.0001 ORIGINAL_CHARGES =  -0.0000

@<TRIPOS>MOLECULE
ZINC00008657
15    15    1     0     0    
SMALL
USER_CHARGES
****
****
@<TRIPOS>ATOM
1     C1       5.9000   -8.4105   -0.2993 C.2     1  LIG  -0.0742   0.0210 
2     C2       6.7222   -8.9065   -1.2288 C.2     1  LIG  -0.0070  -0.0410 
3     N1       6.2235   -9.6956   -2.2237 N.am    1  LIG  -0.4336  -0.5390 
4     C3       4.8823   -9.9965   -2.2966 C.2     1  LIG   0.5751   0.6300 
5     C4       4.0413   -9.3891   -1.1914 C.2     1  LIG   0.2934   0.4500 
6     N2       4.5488   -8.6382   -0.2570 N.2     1  LIG  -0.4648  -0.6210 
7     C5       2.5600   -9.6235   -1.1059 C.2     1  LIG   0.6125   0.6300 
8     O1       2.1519  -10.7243   -0.7757 O.2     1  LIG  -0.5751  -0.5700 
9     N3       1.8138   -8.5218   -1.4297 N.am    1  LIG  -0.6598  -0.8000 
10    O2       4.3411  -10.6808   -3.1509 O.2     1  LIG  -0.5904  -0.5700 
11    H1       0.8009   -8.5614   -1.4094 H       1  LIG   0.3213   0.3700 
12    H2       2.2372   -7.6354   -1.6832 H       1  LIG   0.3151   0.3700 
13    H3       6.8565  -10.0650   -2.9256 H       1  LIG   0.3407   0.3700 
14    H4       6.2946   -7.7821    0.4926 H       1  LIG   0.1826   0.1500 
15    H5       7.7875   -8.7150   -1.2424 H       1  LIG   0.1643   0.1500 
@<TRIPOS>BOND
1     1     14    1
2     1     6     1
3     1     2     2
4     2     15    1
5     2     3     1
6     3     13    1
7     3     4     am
8     4     10    2
9     4     5     1
10    5     7     1
11    5     6     2
12    7     8     2
13    7     9     am
14    9     11    1
15    9     12    1
@<TRIPOS>SUBSTRUCTURE
1   LIG    1    
 
########## Number      : 739
########## Name        : ZINC00008659
########## Description : AM1BCC_CHARGES =  -0.0002 ORIGINAL_CHARGES =   0.0000

@<TRIPOS>MOLECULE
ZINC00008659
28    28    1     0     0    
SMALL
USER_CHARGES
****
****
@<TRIPOS>ATOM
1     C1       6.8727   -9.1050   -1.0674 C.3     1  LIG  -0.1255   0.0000 
2     C2       5.5596   -9.2823   -0.3297 C.3     1  LIG   0.1388   0.2800 
3     O1       4.6273   -8.2649   -0.7341 O.3     1  LIG  -0.4385  -0.4300 
4     C3       4.6710   -7.0858   -0.0638 C.2     1  LIG   0.6481   0.6338 
5     O2       5.4277   -6.7984    0.8504 O.2     1  LIG  -0.5480  -0.5700 
6     C4       3.6492   -6.1496   -0.5989 C.ar    1  LIG  -0.1075   0.0862 
7     C5       2.8043   -6.4893   -1.6591 C.ar    1  LIG  -0.0963  -0.1500 
8     C6       1.8644   -5.5675   -2.1194 C.ar    1  LIG  -0.1232  -0.1500 
9     C7       1.7582   -4.3046   -1.5302 C.ar    1  LIG  -0.1229  -0.1500 
10    C8       2.5947   -3.9495   -0.4696 C.ar    1  LIG   0.0555   0.1170 
11    C9       3.5399   -4.8808   -0.0100 C.ar    1  LIG  -0.1307  -0.1500 
12    N1       2.5594   -2.6966    0.1872 N.am    1  LIG  -0.4657  -0.5470 
13    C10      1.7112   -1.6275   -0.0761 C.2     1  LIG   0.6761   0.5690 
14    O3       0.8239   -1.5727   -0.9238 O.2     1  LIG  -0.5751  -0.5700 
15    C11      1.9762   -0.4485    0.8395 C.3     1  LIG  -0.0353   0.2510 
16    I1       0.6146   -0.5722    2.4522 I       1  LIG  -0.1886  -0.1900 
17    H1       3.2302   -2.5841    0.9431 H       1  LIG   0.3223   0.3700 
18    H2       7.5738   -9.9036   -0.8093 H       1  LIG   0.0464   0.0000 
19    H3       6.7096   -9.1137   -2.1501 H       1  LIG   0.0458   0.0000 
20    H4       7.3329   -8.1425   -0.8226 H       1  LIG   0.0550   0.0000 
21    H5       5.1141  -10.2480   -0.5891 H       1  LIG   0.0641   0.0000 
22    H6       5.7061   -9.2708    0.7563 H       1  LIG   0.0639   0.0000 
23    H7       2.8559   -7.4600   -2.1441 H       1  LIG   0.1572   0.1500 
24    H8       1.2082   -5.8329   -2.9444 H       1  LIG   0.1432   0.1500 
25    H9       1.0105   -3.6297   -1.9305 H       1  LIG   0.1786   0.1500 
26    H10      4.1962   -4.6122    0.8161 H       1  LIG   0.1553   0.1500 
27    H11      3.0136   -0.4519    1.1892 H       1  LIG   0.0907   0.0000 
28    H12      1.8338    0.4720    0.2635 H       1  LIG   0.1161   0.0000 
@<TRIPOS>BOND
1     1     2     1
2     1     18    1
3     1     19    1
4     1     20    1
5     2     3     1
6     2     21    1
7     2     22    1
8     3     4     1
9     4     5     2
10    4     6     1
11    6     11    ar
12    6     7     ar
13    7     8     ar
14    7     23    1
15    8     9     ar
16    8     24    1
17    9     10    ar
18    9     25    1
19    10    11    ar
20    10    12    1
21    11    26    1
22    12    13    am
23    12    17    1
24    13    14    2
25    13    15    1
26    15    16    1
27    15    27    1
28    15    28    1
@<TRIPOS>SUBSTRUCTURE
1   LIG    1    
 
########## Number      : 740
########## Name        : ZINC00008667
########## Description : AM1BCC_CHARGES =  -1.0002 ORIGINAL_CHARGES =  -1.0000

@<TRIPOS>MOLECULE
ZINC00008667
30    31    1     0     0    
SMALL
USER_CHARGES
****
****
@<TRIPOS>ATOM
1     C1       6.6208   -6.7444    3.5648 C.3     1  LIG  -0.0616   0.0000 
2     C2       6.6623   -5.8380    2.3280 C.3     1  LIG  -0.1779   0.0375 
3     C3       5.2989   -5.2612    2.0060 C.ar    1  LIG   0.0267  -0.1435 
4     C4       4.1815   -6.0745    1.7724 C.ar    1  LIG  -0.1346  -0.1500 
5     C5       2.9345   -5.5144    1.4691 C.ar    1  LIG  -0.1050  -0.1500 
6     C6       2.7613   -4.1238    1.3866 C.ar    1  LIG  -0.1221   0.0000 
7     C7       3.8899   -3.3237    1.6157 C.ar    1  LIG   0.1235   0.1900 
8     C8       5.1373   -3.8737    1.9179 C.ar    1  LIG  -0.1845  -0.1500 
9     F1       3.7945   -1.9869    1.5319 F       1  LIG  -0.1627  -0.1900 
10    C9       1.4459   -3.5404    1.0694 C.ar    1  LIG  -0.0008   0.0000 
11    C10      0.7063   -3.9815   -0.0424 C.ar    1  LIG  -0.1231  -0.1500 
12    C11     -0.5430   -3.4317   -0.3425 C.ar    1  LIG  -0.1373  -0.1500 
13    C12     -1.0774   -2.4311    0.4642 C.ar    1  LIG  -0.1469  -0.1500 
14    C13     -0.3634   -1.9798    1.5706 C.ar    1  LIG  -0.1368  -0.1500 
15    C14      0.8860   -2.5294    1.8703 C.ar    1  LIG  -0.1204  -0.1500 
16    C15      7.1710   -6.5917    1.0902 C.2     1  LIG   0.9247   0.9060 
17    O1       7.0458   -7.8483    1.0948 O.co2   1  LIG  -0.8373  -0.9000 
18    H1       6.2700   -6.1865    4.4407 H       1  LIG  -0.0070   0.0000 
19    H2       5.9572   -7.6069    3.4398 H       1  LIG   0.0475   0.0000 
20    H3       7.6212   -7.1301    3.7908 H       1  LIG   0.0268   0.0000 
21    H4       7.3555   -5.0256    2.6036 H       1  LIG   0.0480   0.0000 
22    H5       4.2687   -7.1576    1.8182 H       1  LIG   0.1797   0.1500 
23    H6       2.0940   -6.1860    1.3044 H       1  LIG   0.1222   0.1500 
24    H7       5.9806   -3.2072    2.0790 H       1  LIG   0.1422   0.1500 
25    H8       1.1023   -4.7564   -0.6959 H       1  LIG   0.1399   0.1500 
26    H9      -1.0963   -3.7852   -1.2080 H       1  LIG   0.1207   0.1500 
27    H10     -2.0482   -2.0038    0.2311 H       1  LIG   0.1169   0.1500 
28    H11     -0.7777   -1.2002    2.2036 H       1  LIG   0.1195   0.1500 
29    H12      1.4180   -2.1623    2.7458 H       1  LIG   0.1396   0.1500 
30    O2       7.6737   -5.8464    0.1980 O.co2   1  LIG  -0.8201  -0.9000 
@<TRIPOS>BOND
1     1     2     1
2     1     18    1
3     1     19    1
4     1     20    1
5     2     3     1
6     2     16    1
7     2     21    1
8     3     8     ar
9     3     4     ar
10    4     5     ar
11    4     22    1
12    5     6     ar
13    5     23    1
14    6     7     ar
15    6     10    1
16    7     8     ar
17    7     9     1
18    8     24    1
19    10    15    ar
20    10    11    ar
21    11    12    ar
22    11    25    1
23    12    13    ar
24    12    26    1
25    13    14    ar
26    13    27    1
27    14    15    ar
28    14    28    1
29    15    29    1
30    16    17    2
31    16    30    1
@<TRIPOS>SUBSTRUCTURE
1   LIG    1    
 
########## Number      : 741
########## Name        : ZINC00008702
########## Description : AM1BCC_CHARGES =   0.0002 ORIGINAL_CHARGES =   0.0000

@<TRIPOS>MOLECULE
ZINC00008702
29    31    1     0     0    
SMALL
USER_CHARGES
****
****
@<TRIPOS>ATOM
1     C1       7.5500   -7.3216    0.1960 C.3     1  LIG  -0.0481   0.1435 
2     C2       6.0671   -7.1818    0.4132 C.ar    1  LIG  -0.1464  -0.1435 
3     C3       5.5399   -5.9135    0.7303 C.ar    1  LIG  -0.0689  -0.1500 
4     C4       4.1670   -5.7197    0.9498 C.ar    1  LIG  -0.1779   0.0530 
5     C5       3.3270   -6.8368    0.8594 C.ar    1  LIG  -0.0393  -0.1500 
6     C6       3.8388   -8.0988    0.5447 C.ar    1  LIG  -0.2069  -0.1500 
7     C7       5.2053   -8.2881    0.3058 C.ar    1  LIG   0.1743   0.1000 
8     N1       5.6754   -9.5640    0.0218 N.pl3   1  LIG  -0.8280  -0.9000 
9     C8       3.5822   -4.4098    1.2891 C.2     1  LIG   0.4538   0.3251 
10    N2       2.4161   -4.2613    1.8859 N.2     1  LIG  -0.5355  -0.5653 
11    C9       2.1166   -2.9202    2.0617 C.ar    1  LIG   0.1147   0.2272 
12    C10      0.9559   -2.4012    2.6719 C.ar    1  LIG  -0.1193  -0.1500 
13    C11      0.8040   -1.0183    2.7708 C.ar    1  LIG   0.1253   0.1900 
14    C12      1.7660   -0.1450    2.2832 C.ar    1  LIG  -0.1597  -0.1500 
15    C13      2.9216   -0.6394    1.6750 C.ar    1  LIG  -0.0636  -0.1500 
16    C14      3.0767   -2.0327    1.5748 C.ar    1  LIG  -0.1106   0.0400 
17    S1       4.3700   -2.9319    0.8865 S.3     1  LIG  -0.0453  -0.0800 
18    F1      -0.2982   -0.5222    3.3507 F       1  LIG  -0.1396  -0.1900 
19    H1       5.0246  -10.3293   -0.0958 H       1  LIG   0.4008   0.4000 
20    H2       6.6466   -9.7194   -0.2100 H       1  LIG   0.4016   0.4000 
21    H3       8.0695   -6.3657    0.3216 H       1  LIG   0.0459   0.0000 
22    H4       7.9748   -8.0245    0.9199 H       1  LIG   0.0492   0.0000 
23    H5       7.7524   -7.6752   -0.8202 H       1  LIG   0.0343   0.0000 
24    H6       6.2321   -5.0783    0.8157 H       1  LIG   0.1364   0.1500 
25    H7       2.2562   -6.7423    1.0296 H       1  LIG   0.1538   0.1500 
26    H8       3.1522   -8.9407    0.4857 H       1  LIG   0.1368   0.1500 
27    H9       0.1907   -3.0659    3.0600 H       1  LIG   0.1669   0.1500 
28    H10      1.6192    0.9274    2.3746 H       1  LIG   0.1516   0.1500 
29    H11      3.6771    0.0394    1.2912 H       1  LIG   0.1439   0.1500 
@<TRIPOS>BOND
1     1     2     1
2     1     21    1
3     1     22    1
4     1     23    1
5     2     7     ar
6     2     3     ar
7     3     4     ar
8     3     24    1
9     4     5     ar
10    4     9     1
11    5     6     ar
12    5     25    1
13    6     7     ar
14    6     26    1
15    7     8     1
16    8     19    1
17    8     20    1
18    9     17    1
19    9     10    2
20    10    11    1
21    11    16    ar
22    11    12    ar
23    12    13    ar
24    12    27    1
25    13    14    ar
26    13    18    1
27    14    15    ar
28    14    28    1
29    15    16    ar
30    15    29    1
31    16    17    1
@<TRIPOS>SUBSTRUCTURE
1   LIG    1    
 
########## Number      : 742
########## Name        : ZINC00008896
########## Description : AM1BCC_CHARGES =  -0.0001 ORIGINAL_CHARGES =  -0.0000

@<TRIPOS>MOLECULE
ZINC00008896
35    38    1     0     0    
SMALL
USER_CHARGES
****
****
@<TRIPOS>ATOM
1     C1       4.3583   -9.5173   -1.9743 C.ar    1  LIG  -0.1351  -0.1500 
2     C2       3.4913   -8.8315   -2.8234 C.ar    1  LIG  -0.1136  -0.1500 
3     C3       2.7550   -7.7458   -2.3479 C.ar    1  LIG  -0.1352  -0.1500 
4     C4       2.8907   -7.3480   -1.0133 C.ar    1  LIG  -0.0344  -0.0230 
5     C5       3.7645   -8.0350   -0.1470 C.ar    1  LIG   0.1353   0.1790 
6     C6       4.4937   -9.1207   -0.6433 C.ar    1  LIG  -0.0867  -0.1500 
7     N1       3.9367   -7.6720    1.2091 N.2     1  LIG  -0.6015  -0.6290 
8     C7       3.2751   -6.6598    1.7230 C.2     1  LIG   0.6412   0.5850 
9     C8       2.3599   -5.9215    0.8610 C.2     1  LIG  -0.2284  -0.2366 
10    N2       2.1889   -6.2725   -0.4631 N.pl3   1  LIG   0.0544   0.3262 
11    C9       1.2782   -5.4193   -1.0393 C.2     1  LIG  -0.1430  -0.3016 
12    C10      0.8657   -4.5199   -0.0803 C.2     1  LIG  -0.1803  -0.1500 
13    C11      1.5467   -4.8350    1.1185 C.2     1  LIG  -0.1499  -0.1500 
14    N3       3.4374   -6.2984    3.0476 N.pl3   1  LIG  -0.4922  -0.4700 
15    N4       4.3166   -7.0090    3.8318 N.am    1  LIG  -0.4202  -0.4100 
16    C12      4.5282   -6.5699    5.1240 C.2     1  LIG   0.5682   0.5438 
17    O1       3.9691   -5.5954    5.6236 O.2     1  LIG  -0.5610  -0.5700 
18    C13      5.4859   -7.3534    5.9434 C.ar    1  LIG   0.2404   0.3962 
19    C14      6.3667   -8.2855    5.4250 C.ar    1  LIG   0.3208   0.1600 
20    N5       7.2271   -8.9734    6.2084 N.ar    1  LIG  -0.6267  -0.6200 
21    C15      7.1833   -8.6963    7.5265 C.ar    1  LIG   0.3001   0.1600 
22    C16      6.3139   -7.7636    8.0466 C.ar    1  LIG   0.2796   0.1600 
23    N6       5.4543   -7.0762    7.2681 N.ar    1  LIG  -0.5909  -0.6200 
24    H1       2.9461   -5.5222    3.4800 H       1  LIG   0.4123   0.4000 
25    H2       4.7259   -7.8290    3.3970 H       1  LIG   0.3422   0.3700 
26    H3       4.9295  -10.3620   -2.3490 H       1  LIG   0.1396   0.1500 
27    H4       3.3887   -9.1435   -3.8591 H       1  LIG   0.1388   0.1500 
28    H5       2.0885   -7.2327   -3.0343 H       1  LIG   0.1401   0.1500 
29    H6       5.1733   -9.6642    0.0085 H       1  LIG   0.1537   0.1500 
30    H7       0.9885   -5.5073   -2.0772 H       1  LIG   0.1748   0.1500 
31    H8       0.1504   -3.7233   -0.2320 H       1  LIG   0.1609   0.1500 
32    H9       1.4500   -4.3206    2.0648 H       1  LIG   0.1613   0.1500 
33    H10      6.4412   -8.5200    4.3709 H       1  LIG   0.0514   0.1500 
34    H11      7.8730   -9.2483    8.1532 H       1  LIG   0.0409   0.1500 
35    H12      6.2810   -7.5393    9.1057 H       1  LIG   0.0430   0.1500 
@<TRIPOS>BOND
1     1     6     ar
2     1     2     ar
3     1     26    1
4     2     3     ar
5     2     27    1
6     3     4     ar
7     3     28    1
8     4     10    1
9     4     5     ar
10    5     6     ar
11    5     7     1
12    6     29    1
13    7     8     2
14    8     9     1
15    8     14    1
16    9     13    2
17    9     10    1
18    10    11    1
19    11    12    2
20    11    30    1
21    12    13    1
22    12    31    1
23    13    32    1
24    14    15    1
25    14    24    1
26    15    16    am
27    15    25    1
28    16    17    2
29    16    18    1
30    18    23    ar
31    18    19    ar
32    19    20    ar
33    19    33    1
34    20    21    ar
35    21    22    ar
36    21    34    1
37    22    23    ar
38    22    35    1
@<TRIPOS>SUBSTRUCTURE
1   LIG    1    
 
########## Number      : 743
########## Name        : ZINC00009000
########## Description : AM1BCC_CHARGES =  -0.0000 ORIGINAL_CHARGES =   0.0000

@<TRIPOS>MOLECULE
ZINC00009000
18    19    1     0     0    
SMALL
USER_CHARGES
****
****
@<TRIPOS>ATOM
1     C1       2.9320   -7.3368   -2.6327 C.ar    1  LIG  -0.2268  -0.1500 
2     C2       2.0259   -7.7004   -1.6463 C.ar    1  LIG  -0.0897  -0.1500 
3     C3       1.5796   -6.7668   -0.6845 C.ar    1  LIG  -0.1014   0.0000 
4     C4       0.6566   -7.0731    0.3478 C.ar    1  LIG  -0.0086   0.1770 
5     C5       0.2543   -6.1047    1.2689 C.ar    1  LIG  -0.0583  -0.1500 
6     C6       0.7674   -4.8173    1.1728 C.ar    1  LIG  -0.0849   0.0810 
7     C7       1.6782   -4.5059    0.1580 C.ar    1  LIG   0.1484   0.0825 
8     C8       2.0993   -5.4552   -0.7786 C.ar    1  LIG   0.3781   0.3100 
9     N1       2.9809   -5.1057   -1.7403 N.ar    1  LIG  -0.6208  -0.6200 
10    C9       3.3760   -6.0350   -2.6357 C.ar    1  LIG   0.4018   0.1600 
11    O1       2.1972   -3.2365    0.0467 O.3     1  LIG  -0.4536  -0.5325 
12    I1       0.1449   -3.3905    2.5673 I       1  LIG  -0.1264  -0.0810 
13    Cl1     -0.0249   -8.6571    0.5293 Cl      1  LIG  -0.0854  -0.1770 
14    H1       1.8184   -2.6910    0.7574 H       1  LIG   0.4305   0.4500 
15    H2       3.2755   -8.0514   -3.3712 H       1  LIG   0.1501   0.1500 
16    H3       1.6719   -8.7284   -1.6397 H       1  LIG   0.1553   0.1500 
17    H4      -0.4548   -6.3625    2.0523 H       1  LIG   0.1617   0.1500 
18    H5       4.0846   -5.6870   -3.3799 H       1  LIG   0.0300   0.1500 
@<TRIPOS>BOND
1     1     10    ar
2     1     2     ar
3     1     15    1
4     2     3     ar
5     2     16    1
6     3     8     ar
7     3     4     ar
8     4     5     ar
9     4     13    1
10    5     6     ar
11    5     17    1
12    6     7     ar
13    6     12    1
14    7     8     ar
15    7     11    1
16    8     9     ar
17    9     10    ar
18    10    18    1
19    11    14    1
@<TRIPOS>SUBSTRUCTURE
1   LIG    1    
 
########## Number      : 744
########## Name        : ZINC00009065
########## Description : AM1BCC_CHARGES =   0.0003 ORIGINAL_CHARGES =  -0.0000

@<TRIPOS>MOLECULE
ZINC00009065
29    31    1     0     0    
SMALL
USER_CHARGES
****
****
@<TRIPOS>ATOM
1     C1       5.7459   -7.7666    0.4571 C.ar    1  LIG  -0.1028  -0.1500 
2     C2       5.1145   -8.9773    0.2155 C.ar    1  LIG  -0.2402  -0.1500 
3     C3       3.7340   -9.0006    0.2632 C.ar    1  LIG   0.3957   0.1600 
4     N1       2.9672   -7.9184    0.5302 N.ar    1  LIG  -0.6684  -0.6200 
5     C4       3.5916   -6.7340    0.7662 C.ar    1  LIG   0.3530   0.3100 
6     C5       4.9849   -6.6324    0.7352 C.ar    1  LIG  -0.2061  -0.1500 
7     C6       2.7157   -5.5797    1.0532 C.ar    1  LIG   0.3526   0.3100 
8     C7       1.3268   -5.6789    1.0846 C.ar    1  LIG  -0.1954  -0.1500 
9     C8       0.5764   -4.5425    1.3628 C.ar    1  LIG  -0.1157  -0.1500 
10    C9       1.2158   -3.3322    1.6040 C.ar    1  LIG  -0.1954  -0.1500 
11    C10      2.6071   -3.2835    1.5614 C.ar    1  LIG   0.3526   0.3100 
12    N2       3.3422   -4.3954    1.2892 N.ar    1  LIG  -0.6730  -0.6200 
13    C11      3.3695   -2.0420    1.8048 C.ar    1  LIG   0.3530   0.3100 
14    C12      4.7655   -1.9952    1.7616 C.ar    1  LIG  -0.2061  -0.1500 
15    C13      5.4156   -0.7859    2.0022 C.ar    1  LIG  -0.1028  -0.1500 
16    C14      4.6730    0.3517    2.2803 C.ar    1  LIG  -0.2402  -0.1500 
17    C15      3.2972    0.2283    2.3059 C.ar    1  LIG   0.3957   0.1600 
18    N3       2.6365   -0.9298    2.0770 N.ar    1  LIG  -0.6684  -0.6200 
19    H1       6.8297   -7.7009    0.4300 H       1  LIG   0.1393   0.1500 
20    H2       5.6837   -9.8732   -0.0030 H       1  LIG   0.1442   0.1500 
21    H3       3.1859   -9.9196    0.0825 H       1  LIG   0.0223   0.1500 
22    H4       5.4930   -5.6912    0.9224 H       1  LIG   0.1620   0.1500 
23    H5       0.8149   -6.6180    0.8981 H       1  LIG   0.1672   0.1500 
24    H6      -0.5079   -4.6002    1.3917 H       1  LIG   0.1422   0.1500 
25    H7       0.6178   -2.4521    1.8201 H       1  LIG   0.1672   0.1500 
26    H8       5.3599   -2.8777    1.5451 H       1  LIG   0.1620   0.1500 
27    H9       6.5001   -0.7362    1.9715 H       1  LIG   0.1393   0.1500 
28    H10      5.1549    1.3035    2.4708 H       1  LIG   0.1442   0.1500 
29    H11      2.6652    1.0846    2.5181 H       1  LIG   0.0223   0.1500 
@<TRIPOS>BOND
1     1     6     ar
2     1     2     ar
3     1     19    1
4     2     3     ar
5     2     20    1
6     3     4     ar
7     3     21    1
8     4     5     ar
9     5     6     ar
10    5     7     1
11    6     22    1
12    7     12    ar
13    7     8     ar
14    8     9     ar
15    8     23    1
16    9     10    ar
17    9     24    1
18    10    11    ar
19    10    25    1
20    11    12    ar
21    11    13    1
22    13    18    ar
23    13    14    ar
24    14    15    ar
25    14    26    1
26    15    16    ar
27    15    27    1
28    16    17    ar
29    16    28    1
30    17    18    ar
31    17    29    1
@<TRIPOS>SUBSTRUCTURE
1   LIG    1    
 
########## Number      : 745
########## Name        : ZINC00009073
########## Description : AM1BCC_CHARGES =   1.0000 ORIGINAL_CHARGES =   1.0000

@<TRIPOS>MOLECULE
ZINC00009073
38    41    1     0     0    
SMALL
USER_CHARGES
****
****
@<TRIPOS>ATOM
1     C1      -0.2882    1.4161    2.8913 C.3     1  LIG   0.0809   0.5030 
2     C2      -0.8704    2.1304    0.5479 C.3     1  LIG   0.1160   0.5030 
3     C3       0.2340    3.1770    0.4935 C.3     1  LIG  -0.0562   0.1435 
4     C4       1.6126    2.5957    0.3126 C.ar    1  LIG  -0.0889  -0.1435 
5     C5       2.6626    3.4529   -0.0188 C.ar    1  LIG  -0.1096  -0.1500 
6     C6       3.9466    2.9508   -0.1577 C.ar    1  LIG  -0.0914  -0.1500 
7     C7       4.1884    1.5855    0.0178 C.ar    1  LIG  -0.1153  -0.1500 
8     C8       3.1654    0.6606    0.3371 C.ar    1  LIG   0.0063   0.0000 
9     C9       1.8709    1.2219    0.5248 C.ar    1  LIG  -0.1289  -0.1435 
10    C10      0.7249    0.2789    0.8401 C.3     1  LIG   0.1913   0.6465 
11    C11      1.1923   -0.8502    1.7697 C.3     1  LIG  -0.0381   0.1435 
12    C12      2.4160   -1.5308    1.1918 C.ar    1  LIG  -0.1209  -0.1435 
13    C13      3.3840   -0.7650    0.4939 C.ar    1  LIG  -0.0539   0.0000 
14    C14      4.5054   -1.5150    0.0267 C.ar    1  LIG   0.0437   0.0825 
15    C15      4.6774   -2.8760    0.3146 C.ar    1  LIG   0.1477   0.0825 
16    C16      3.7298   -3.5728    1.0409 C.ar    1  LIG  -0.1268  -0.1500 
17    C17      2.5944   -2.9023    1.4708 C.ar    1  LIG  -0.0903  -0.1500 
18    O1       5.7733   -3.5589   -0.1375 O.3     1  LIG  -0.4728  -0.5325 
19    O2       5.4562   -0.9801   -0.8091 O.3     1  LIG  -0.5127  -0.5325 
20    H1       6.3264   -2.9223   -0.6252 H       1  LIG   0.4499   0.4500 
21    H2       5.0087   -0.3537   -1.4034 H       1  LIG   0.4334   0.4500 
22    H3      -0.3400    0.5242    3.5205 H       1  LIG   0.1010   0.0000 
23    H4       0.6712    1.9257    3.0023 H       1  LIG   0.1158   0.0000 
24    H5      -1.1142    2.0816    3.1579 H       1  LIG   0.0974   0.0000 
25    H6      -1.0673    1.7004   -0.4414 H       1  LIG   0.1046   0.0000 
26    H7      -1.8078    2.5528    0.9257 H       1  LIG   0.1004   0.0000 
27    H8       0.0150    3.8667   -0.3308 H       1  LIG   0.1054   0.0000 
28    H9       0.2287    3.7690    1.4172 H       1  LIG   0.0796   0.0000 
29    H10      2.4863    4.5162   -0.1595 H       1  LIG   0.1550   0.1500 
30    H11      4.7693    3.6195   -0.3959 H       1  LIG   0.1626   0.1500 
31    H12      5.2260    1.2702   -0.0589 H       1  LIG   0.1756   0.1500 
32    H13      0.3992   -0.1972   -0.1062 H       1  LIG   0.1091   0.0000 
33    H14      1.4852   -0.4815    2.7600 H       1  LIG   0.0775   0.0000 
34    H15      0.3772   -1.5721    1.9028 H       1  LIG   0.0643   0.0000 
35    H16      3.8605   -4.6275    1.2620 H       1  LIG   0.1750   0.1500 
36    H17      1.8456   -3.4472    2.0414 H       1  LIG   0.1461   0.1500 
37    N1      -0.4860    0.9862    1.4484 N.4     1  LIG  -0.6798  -0.9590 
38    H18     -1.2893    0.3362    1.5069 H       1  LIG   0.4470   0.4500 
@<TRIPOS>BOND
1     1     22    1
2     1     23    1
3     1     24    1
4     1     37    1
5     2     3     1
6     2     25    1
7     2     26    1
8     2     37    1
9     3     4     1
10    3     27    1
11    3     28    1
12    4     9     ar
13    4     5     ar
14    5     6     ar
15    5     29    1
16    6     7     ar
17    6     30    1
18    7     8     ar
19    7     31    1
20    8     13    1
21    8     9     ar
22    9     10    1
23    10    11    1
24    10    32    1
25    10    37    1
26    11    12    1
27    11    33    1
28    11    34    1
29    12    17    ar
30    12    13    ar
31    13    14    ar
32    14    15    ar
33    14    19    1
34    15    16    ar
35    15    18    1
36    16    17    ar
37    16    35    1
38    17    36    1
39    18    20    1
40    19    21    1
41    37    38    1
@<TRIPOS>SUBSTRUCTURE
1   LIG    1    
 
########## Number      : 746
########## Name        : ZINC00009082
########## Description : AM1BCC_CHARGES =  -0.0002 ORIGINAL_CHARGES =   0.0000

@<TRIPOS>MOLECULE
ZINC00009082
37    39    1     0     0    
SMALL
USER_CHARGES
****
****
@<TRIPOS>ATOM
1     C1      -0.2630   -0.1273    3.3275 C.3     1  LIG   0.1265   0.2800 
2     O1      -1.2837   -0.3172    2.3433 O.3     1  LIG  -0.4470  -0.4300 
3     C2      -0.9071   -1.0404    1.2463 C.2     1  LIG   0.6342   0.6590 
4     O2       0.1983   -1.5338    1.0648 O.2     1  LIG  -0.5208  -0.5700 
5     C3      -2.0890   -1.1672    0.3073 C.3     1  LIG  -0.0716   0.1992 
6     C4      -1.5710   -1.2858   -1.1137 C.2     1  LIG  -0.2636  -0.1238 
7     C5      -1.6183   -2.4258   -1.8215 C.2     1  LIG   0.2017   0.0767 
8     O3      -1.1496   -2.5874   -3.1079 O.3     1  LIG  -0.2089  -0.1592 
9     C6      -0.5903   -1.5040   -3.7372 C.ar    1  LIG   0.1756   0.0825 
10    C7      -0.1256   -1.7123   -5.0390 C.ar    1  LIG  -0.1786  -0.1500 
11    C8       0.4642   -0.6648   -5.7574 C.ar    1  LIG   0.0060  -0.1435 
12    C9       0.5650    0.5971   -5.1586 C.ar    1  LIG  -0.1876  -0.1500 
13    C10      0.1000    0.8022   -3.8574 C.ar    1  LIG   0.2285   0.0825 
14    C11     -0.4794   -0.2493   -3.1387 C.ar    1  LIG  -0.2886   0.0862 
15    C12     -0.9861   -0.0850   -1.7620 C.2     1  LIG   0.6148   0.4694 
16    O4      -0.9240    0.9932   -1.1844 O.2     1  LIG  -0.5886  -0.5700 
17    O5       0.2462    2.0661   -3.3538 O.3     1  LIG  -0.4968  -0.5325 
18    C13      0.9424   -0.8819   -7.1633 C.3     1  LIG   0.1700   0.4235 
19    O6      -0.1417   -0.6784   -8.0561 O.3     1  LIG  -0.5888  -0.6800 
20    C14     -2.1847   -3.6240   -1.2534 C.2     1  LIG  -0.1306  -0.1500 
21    C15     -2.8167   -3.6084   -0.0728 C.2     1  LIG  -0.0997  -0.2882 
22    C16     -2.9635   -2.3704    0.7716 C.3     1  LIG   0.1771   0.4182 
23    O7      -4.3286   -1.9870    0.7446 O.3     1  LIG  -0.5858  -0.6800 
24    H1      -0.1113    2.0869   -2.4480 H       1  LIG   0.4652   0.4500 
25    H2       0.1987   -0.8231   -8.9553 H       1  LIG   0.4039   0.4000 
26    H3      -4.4515   -1.2894    1.4110 H       1  LIG   0.4132   0.4000 
27    H4      -0.6822    0.4717    4.1404 H       1  LIG   0.0631   0.0000 
28    H5       0.0572   -1.0921    3.7321 H       1  LIG   0.0423   0.0000 
29    H6       0.5852    0.4128    2.8959 H       1  LIG   0.0517   0.0000 
30    H7      -2.7099   -0.2553    0.3168 H       1  LIG   0.1164   0.0000 
31    H8      -0.2255   -2.6947   -5.4954 H       1  LIG   0.1613   0.1500 
32    H9       1.0065    1.4259   -5.7077 H       1  LIG   0.1613   0.1500 
33    H10      1.7490   -0.1848   -7.4148 H       1  LIG   0.0358   0.0000 
34    H11      1.3260   -1.9002   -7.2899 H       1  LIG   0.0349   0.0000 
35    H12     -2.1130   -4.5471   -1.8201 H       1  LIG   0.1626   0.1500 
36    H13     -3.2563   -4.5273    0.3056 H       1  LIG   0.1521   0.1500 
37    H14     -2.6679   -2.6642    1.7917 H       1  LIG   0.0586   0.0000 
@<TRIPOS>BOND
1     1     2     1
2     1     27    1
3     1     28    1
4     1     29    1
5     2     3     1
6     3     4     2
7     3     5     1
8     5     22    1
9     5     6     1
10    5     30    1
11    6     15    1
12    6     7     2
13    7     8     1
14    7     20    1
15    8     9     1
16    9     14    ar
17    9     10    ar
18    10    11    ar
19    10    31    1
20    11    12    ar
21    11    18    1
22    12    13    ar
23    12    32    1
24    13    14    ar
25    13    17    1
26    14    15    1
27    15    16    2
28    17    24    1
29    18    19    1
30    18    33    1
31    18    34    1
32    19    25    1
33    20    21    2
34    20    35    1
35    21    22    1
36    21    36    1
37    22    23    1
38    22    37    1
39    23    26    1
@<TRIPOS>SUBSTRUCTURE
1   LIG    1    
 
########## Number      : 747
########## Name        : ZINC00009180
########## Description : AM1BCC_CHARGES =   1.0000 ORIGINAL_CHARGES =   1.0000

@<TRIPOS>MOLECULE
ZINC00009180
29    30    1     0     0    
SMALL
USER_CHARGES
****
****
@<TRIPOS>ATOM
1     C1       3.6553   -6.7516   -0.8600 C.3     1  LIG  -0.0965   0.0000 
2     C2       2.6896   -6.8201   -2.0480 C.3     1  LIG   0.1087   0.5030 
3     C3       1.0271   -8.0144   -0.7009 C.3     1  LIG   0.1083   0.5030 
4     C4       1.9447   -7.9805    0.5261 C.3     1  LIG  -0.0964   0.0000 
5     C5       2.8948   -6.7768    0.4725 C.3     1  LIG  -0.1635   0.0610 
6     C6       2.0227   -5.5292    0.5024 C.2     1  LIG   0.5617   0.4480 
7     O1       2.1149   -4.6722    1.3760 O.2     1  LIG  -0.4541  -0.5700 
8     C7       1.0217   -5.4409   -0.6548 C.3     1  LIG  -0.0834   0.5640 
9     C8       1.3271   -4.2094   -1.5372 C.3     1  LIG   0.1479   0.2800 
10    O2       0.9836   -2.9738   -0.9215 O.3     1  LIG  -0.5280  -0.6800 
11    C9      -0.4266   -5.4693   -0.1162 C.3     1  LIG   0.1477   0.2800 
12    O3      -0.8118   -4.2636    0.5332 O.3     1  LIG  -0.5307  -0.6800 
13    H1       1.4822   -2.9051   -0.0887 H       1  LIG   0.4288   0.4000 
14    H2      -0.1964   -4.1109    1.2714 H       1  LIG   0.4251   0.4000 
15    H3       4.2552   -5.8362   -0.9346 H       1  LIG   0.0970   0.0000 
16    H4       4.3586   -7.5910   -0.9120 H       1  LIG   0.1016   0.0000 
17    H5       2.8365   -6.0112   -2.7683 H       1  LIG   0.1095   0.0000 
18    H6       2.7806   -7.7666   -2.5926 H       1  LIG   0.1057   0.0000 
19    H7      -0.0334   -8.0729   -0.4429 H       1  LIG   0.1090   0.0000 
20    H8       1.2540   -8.8632   -1.3556 H       1  LIG   0.1058   0.0000 
21    H9       1.3313   -7.9367    1.4346 H       1  LIG   0.0964   0.0000 
22    H10      2.5169   -8.9141    0.5804 H       1  LIG   0.1018   0.0000 
23    H11      3.5806   -6.7698    1.3250 H       1  LIG   0.1391   0.0000 
24    H12      2.3903   -4.1359   -1.7847 H       1  LIG   0.0424   0.0000 
25    H13      0.7663   -4.2677   -2.4762 H       1  LIG   0.0902   0.0000 
26    H14     -1.1331   -5.6322   -0.9372 H       1  LIG   0.0963   0.0000 
27    H15     -0.5753   -6.2664    0.6184 H       1  LIG   0.0414   0.0000 
28    N1       1.2626   -6.7396   -1.5089 N.4     1  LIG  -0.6729  -0.9590 
29    H16      0.6124   -6.7352   -2.3074 H       1  LIG   0.4611   0.4500 
@<TRIPOS>BOND
1     1     5     1
2     1     2     1
3     1     15    1
4     1     16    1
5     2     17    1
6     2     18    1
7     2     28    1
8     3     4     1
9     3     19    1
10    3     20    1
11    3     28    1
12    4     5     1
13    4     21    1
14    4     22    1
15    5     6     1
16    5     23    1
17    6     7     2
18    6     8     1
19    8     9     1
20    8     11    1
21    8     28    1
22    9     10    1
23    9     24    1
24    9     25    1
25    10    13    1
26    11    12    1
27    11    26    1
28    11    27    1
29    12    14    1
30    28    29    1
@<TRIPOS>SUBSTRUCTURE
1   LIG    1    
 
########## Number      : 748
########## Name        : ZINC00009192
########## Description : AM1BCC_CHARGES =   0.0002 ORIGINAL_CHARGES =   0.0000

@<TRIPOS>MOLECULE
ZINC00009192
22    22    1     0     0    
SMALL
USER_CHARGES
****
****
@<TRIPOS>ATOM
1     C1       7.0777   -4.3912    5.8441 C.3     1  LIG   0.1250   0.2800 
2     O1       6.3300   -4.4892    4.6285 O.3     1  LIG  -0.4234  -0.4300 
3     C2       5.8665   -5.7330    4.3360 C.2     1  LIG   0.6664   0.8250 
4     O2       6.0213   -6.7517    4.9926 O.2     1  LIG  -0.5112  -0.5700 
5     C3       5.1259   -5.7529    3.1020 C.1     1  LIG  -0.1063  -0.1050 
6     C4       4.5077   -5.7709    2.0723 C.1     1  LIG  -0.0261  -0.0730 
7     C5       3.7714   -5.7922    0.8459 C.ar    1  LIG   0.0427   0.0730 
8     C6       3.5985   -4.6127    0.1141 C.ar    1  LIG  -0.1061  -0.1500 
9     C7       2.8805   -4.6280   -1.0835 C.ar    1  LIG  -0.0746  -0.1500 
10    C8       2.3387   -5.8336   -1.5403 C.ar    1  LIG  -0.1590   0.1330 
11    C9       2.5055   -7.0187   -0.8169 C.ar    1  LIG  -0.0742  -0.1500 
12    C10      3.2249   -6.9925    0.3797 C.ar    1  LIG  -0.1057  -0.1500 
13    N1       1.5879   -5.8553   -2.7909 N.pl3   1  LIG   0.3111   0.9070 
14    O3       1.4502   -6.9463   -3.3607 O.2     1  LIG  -0.2007  -0.5200 
15    O4       1.1331   -4.7813   -3.2079 O.3     1  LIG  -0.2015  -0.5200 
16    H1       7.3925   -3.3514    5.9668 H       1  LIG   0.0692   0.0000 
17    H2       6.4529   -4.6711    6.6978 H       1  LIG   0.0498   0.0000 
18    H3       7.9693   -5.0235    5.7934 H       1  LIG   0.0502   0.0000 
19    H4       4.0204   -3.6743    0.4673 H       1  LIG   0.1604   0.1500 
20    H5       2.7645   -3.6997   -1.6363 H       1  LIG   0.1764   0.1500 
21    H6       2.0864   -7.9625   -1.1552 H       1  LIG   0.1766   0.1500 
22    H7       3.3527   -7.9149    0.9418 H       1  LIG   0.1612   0.1500 
@<TRIPOS>BOND
1     1     2     1
2     1     16    1
3     1     17    1
4     1     18    1
5     2     3     1
6     3     4     2
7     3     5     1
8     5     6     3
9     6     7     1
10    7     12    ar
11    7     8     ar
12    8     9     ar
13    8     19    1
14    9     10    ar
15    9     20    1
16    10    11    ar
17    10    13    1
18    11    12    ar
19    11    21    1
20    12    22    1
21    13    14    2
22    13    15    1
@<TRIPOS>SUBSTRUCTURE
1   LIG    1    
 
########## Number      : 749
########## Name        : ZINC00009202
########## Description : AM1BCC_CHARGES =   0.0000 ORIGINAL_CHARGES =   0.0000

@<TRIPOS>MOLECULE
ZINC00009202
43    43    1     0     0    
SMALL
USER_CHARGES
****
****
@<TRIPOS>ATOM
1     C1       4.5294  -11.2202    0.9368 C.3     1  LIG  -0.1051   0.0000 
2     C2       4.8250   -9.8098    0.3977 C.3     1  LIG   0.1163   0.3001 
3     C3       6.2837   -9.4554    0.7241 C.3     1  LIG  -0.1184   0.0000 
4     C4       4.6105   -9.8126   -1.1235 C.3     1  LIG  -0.1009   0.0000 
5     N1       3.9060   -8.8649    1.0517 N.am    1  LIG  -0.5380  -0.7301 
6     C5       3.8580   -7.5080    0.8312 C.2     1  LIG   0.7085   0.7710 
7     O1       4.5359   -6.8571    0.0485 O.2     1  LIG  -0.5749  -0.5700 
8     S1       2.6275   -6.7841    1.8634 S.3     1  LIG  -0.2544  -0.2425 
9     C6       3.2164   -5.0977    1.9575 C.ar    1  LIG   0.0329   0.1015 
10    C7       2.6650   -4.1612    1.0705 C.ar    1  LIG  -0.0679  -0.1500 
11    C8       3.0554   -2.8211    1.1145 C.ar    1  LIG  -0.1288  -0.1500 
12    C9       3.9973   -2.3972    2.0484 C.ar    1  LIG  -0.1019  -0.1500 
13    C10      4.5510   -3.3116    2.9423 C.ar    1  LIG  -0.1286  -0.1500 
14    C11      4.1600   -4.6578    2.9019 C.ar    1  LIG  -0.0832   0.0862 
15    C12      4.7926   -5.5840    3.8678 C.2     1  LIG   0.6713   0.5438 
16    O2       5.4255   -6.5523    3.4633 O.2     1  LIG  -0.5890  -0.5700 
17    N2       4.6015   -5.2377    5.1937 N.am    1  LIG  -0.5699  -0.7301 
18    C13      5.1508   -6.0170    6.2874 C.3     1  LIG   0.1029   0.3001 
19    C14      6.5992   -5.6390    6.5685 C.3     1  LIG  -0.1836   0.0610 
20    C15      7.1761   -6.4191    7.7305 C.2     1  LIG   0.6610   0.5690 
21    O3       6.5425   -7.2363    8.3908 O.2     1  LIG  -0.6156  -0.5700 
22    N3       8.4945   -6.1101    7.9743 N.am    1  LIG  -0.6774  -0.8000 
23    H1       3.2661   -9.2306    1.7497 H       1  LIG   0.3163   0.3700 
24    H2       4.0492   -4.4181    5.4268 H       1  LIG   0.3134   0.3700 
25    H3       8.9967   -6.5650    8.7287 H       1  LIG   0.3166   0.3700 
26    H4       9.0074   -5.4329    7.4201 H       1  LIG   0.3054   0.3700 
27    H5       3.4934  -11.5128    0.7297 H       1  LIG   0.0427   0.0000 
28    H6       5.1879  -11.9691    0.4828 H       1  LIG   0.0490   0.0000 
29    H7       4.6682  -11.2646    2.0234 H       1  LIG   0.0389   0.0000 
30    H8       6.5654   -8.4776    0.3196 H       1  LIG   0.0684   0.0000 
31    H9       6.4464   -9.4186    1.8076 H       1  LIG   0.0440   0.0000 
32    H10      6.9745  -10.1953    0.3043 H       1  LIG   0.0377   0.0000 
33    H11      4.8602   -8.8457   -1.5724 H       1  LIG   0.0666   0.0000 
34    H12      5.2357  -10.5699   -1.6099 H       1  LIG   0.0367   0.0000 
35    H13      3.5650  -10.0278   -1.3727 H       1  LIG   0.0386   0.0000 
36    H14      1.9244   -4.4632    0.3326 H       1  LIG   0.1552   0.1500 
37    H15      2.6225   -2.1080    0.4183 H       1  LIG   0.1418   0.1500 
38    H16      4.3018   -1.3549    2.0783 H       1  LIG   0.1391   0.1500 
39    H17      5.2931   -2.9671    3.6584 H       1  LIG   0.1375   0.1500 
40    H18      4.5225   -5.8304    7.1651 H       1  LIG   0.0696   0.0000 
41    H19      5.0720   -7.0811    6.0370 H       1  LIG   0.0854   0.0000 
42    H20      7.2196   -5.8244    5.6833 H       1  LIG   0.0804   0.0000 
43    H21      6.6705   -4.5692    6.7998 H       1  LIG   0.0614   0.0000 
@<TRIPOS>BOND
1     1     2     1
2     1     27    1
3     1     28    1
4     1     29    1
5     2     3     1
6     2     4     1
7     2     5     1
8     3     30    1
9     3     31    1
10    3     32    1
11    4     33    1
12    4     34    1
13    4     35    1
14    5     6     am
15    5     23    1
16    6     7     2
17    6     8     1
18    8     9     1
19    9     14    ar
20    9     10    ar
21    10    11    ar
22    10    36    1
23    11    12    ar
24    11    37    1
25    12    13    ar
26    12    38    1
27    13    14    ar
28    13    39    1
29    14    15    1
30    15    16    2
31    15    17    am
32    17    18    1
33    17    24    1
34    18    19    1
35    18    40    1
36    18    41    1
37    19    20    1
38    19    42    1
39    19    43    1
40    20    21    2
41    20    22    am
42    22    25    1
43    22    26    1
@<TRIPOS>SUBSTRUCTURE
1   LIG    1    
 
########## Number      : 750
########## Name        : ZINC00009206
########## Description : AM1BCC_CHARGES =   0.0001 ORIGINAL_CHARGES =   0.0000

@<TRIPOS>MOLECULE
ZINC00009206
31    32    1     0     0    
SMALL
USER_CHARGES
****
****
@<TRIPOS>ATOM
1     C1       9.0217    2.6943    0.7853 C.ar    1  LIG  -0.0901  -0.1500 
2     C2      10.2506    3.0405    0.2206 C.ar    1  LIG  -0.1663  -0.1500 
3     C3      10.3120    4.0825   -0.6966 C.ar    1  LIG   0.1339   0.1900 
4     C4       9.1687    4.7866   -1.0550 C.ar    1  LIG  -0.1669  -0.1500 
5     C5       7.9399    4.4391   -0.4897 C.ar    1  LIG  -0.0899  -0.1500 
6     C6       7.8491    3.3797    0.4273 C.ar    1  LIG  -0.0811   0.0284 
7     C7       6.5832    2.9934    1.0740 C.2     1  LIG  -0.0794  -0.1784 
8     C8       5.3746    3.0933    0.4968 C.2     1  LIG  -0.1272  -0.1784 
9     C9       4.1089    2.7070    1.1437 C.ar    1  LIG   0.0108   0.0284 
10    C10      4.0176    1.6463    2.0579 C.ar    1  LIG  -0.1517  -0.1500 
11    C11      2.7899    1.2960    2.6257 C.ar    1  LIG  -0.0138  -0.1500 
12    C12      1.6444    2.0074    2.2750 C.ar    1  LIG  -0.3871  -0.0090 
13    C13      1.7061    3.0485    1.3512 C.ar    1  LIG  -0.0185  -0.1500 
14    C14      2.9369    3.3925    0.7876 C.ar    1  LIG  -0.1503  -0.1500 
15    S1       0.0850    1.5471    2.9682 S.o2    1  LIG   1.5291   1.4470 
16    O1      -0.9505    1.9805    2.0517 O.2     1  LIG  -0.6589  -0.6500 
17    O2       0.1743    0.1627    3.3869 O.2     1  LIG  -0.6586  -0.6500 
18    N1       0.0427    2.5366    4.3597 N.pl3   1  LIG  -1.0272  -0.9780 
19    F1      11.4911    4.4172   -1.2384 F       1  LIG  -0.1373  -0.1900 
20    H1       0.0933    2.0273    5.2507 H       1  LIG   0.4480   0.4200 
21    H2       0.6780    3.3443    4.3617 H       1  LIG   0.4462   0.4200 
22    H3       8.9883    1.8781    1.5040 H       1  LIG   0.1392   0.1500 
23    H4      11.1517    2.5021    0.4966 H       1  LIG   0.1517   0.1500 
24    H5       9.2324    5.6046   -1.7658 H       1  LIG   0.1515   0.1500 
25    H6       7.0614    5.0149   -0.7701 H       1  LIG   0.1395   0.1500 
26    H7       6.6831    2.5980    2.0819 H       1  LIG   0.1308   0.1500 
27    H8       5.2747    3.4885   -0.5112 H       1  LIG   0.1349   0.1500 
28    H9       4.8965    1.0686    2.3343 H       1  LIG   0.1408   0.1500 
29    H10      2.7512    0.4719    3.3324 H       1  LIG   0.1507   0.1500 
30    H11      0.8181    3.6022    1.0603 H       1  LIG   0.1561   0.1500 
31    H12      2.9710    4.2085    0.0684 H       1  LIG   0.1412   0.1500 
@<TRIPOS>BOND
1     1     6     ar
2     1     2     ar
3     1     22    1
4     2     3     ar
5     2     23    1
6     3     4     ar
7     3     19    1
8     4     5     ar
9     4     24    1
10    5     6     ar
11    5     25    1
12    6     7     1
13    7     8     2
14    7     26    1
15    8     9     1
16    8     27    1
17    9     14    ar
18    9     10    ar
19    10    11    ar
20    10    28    1
21    11    12    ar
22    11    29    1
23    12    13    ar
24    12    15    1
25    13    14    ar
26    13    30    1
27    14    31    1
28    15    16    2
29    15    17    2
30    15    18    1
31    18    20    1
32    18    21    1
@<TRIPOS>SUBSTRUCTURE
1   LIG    1    
 
########## Number      : 751
########## Name        : ZINC00009349
########## Description : AM1BCC_CHARGES =  -1.0001 ORIGINAL_CHARGES =  -1.0000

@<TRIPOS>MOLECULE
ZINC00009349
28    28    1     0     0    
SMALL
USER_CHARGES
****
****
@<TRIPOS>ATOM
1     C1       5.6414   -9.0143   -0.3651 C.ar    1  LIG  -0.1239  -0.1500 
2     C2       5.0003   -8.5514    0.7824 C.ar    1  LIG  -0.1369  -0.1500 
3     C3       4.0526   -7.5310    0.6903 C.ar    1  LIG  -0.1002  -0.1500 
4     C4       3.7331   -6.9693   -0.5536 C.ar    1  LIG  -0.1319  -0.1435 
5     C5       4.3907   -7.4346   -1.7001 C.ar    1  LIG  -0.1130  -0.1500 
6     C6       5.3381   -8.4554   -1.6053 C.ar    1  LIG  -0.1467  -0.1500 
7     C7       2.7322   -5.8522   -0.6466 C.3     1  LIG   0.1733   0.6465 
8     C8       2.4383   -3.3202   -0.4929 C.3     1  LIG  -0.0033   0.3970 
9     C9       1.4816   -3.2677    0.7066 C.3     1  LIG  -0.2038  -0.1060 
10    C10      2.0891   -3.1952    2.1133 C.2     1  LIG   0.9076   0.9060 
11    O1       3.3062   -3.5166    2.2106 O.co2   1  LIG  -0.9012  -0.9000 
12    C11      3.2694   -2.0258   -0.6687 C.2     1  LIG   0.9161   0.9060 
13    O2       4.3820   -2.1983   -1.2496 O.co2   1  LIG  -0.8462  -0.9000 
14    H1       6.3798   -9.8076   -0.2924 H       1  LIG   0.1229   0.1500 
15    H2       5.2404   -8.9828    1.7501 H       1  LIG   0.1355   0.1500 
16    H3       3.5662   -7.1753    1.5958 H       1  LIG   0.2031   0.1500 
17    H4       4.1709   -7.0054   -2.6746 H       1  LIG   0.1302   0.1500 
18    H5       5.8415   -8.8128   -2.4992 H       1  LIG   0.1241   0.1500 
19    H6       2.2981   -5.7987   -1.6513 H       1  LIG   0.0665   0.0000 
20    H7       1.9192   -6.0149    0.0683 H       1  LIG   0.1009   0.0000 
21    H8       1.8188   -3.4286   -1.4014 H       1  LIG   0.0501   0.0000 
22    H9       0.8158   -2.4015    0.5933 H       1  LIG   0.0921   0.0000 
23    H10      0.8237   -4.1455    0.6923 H       1  LIG   0.0512   0.0000 
24    N1       3.3405   -4.5214   -0.3561 N.4     1  LIG  -0.7807  -0.9060 
25    H11      3.7485   -4.5117    0.5933 H       1  LIG   0.5005   0.4500 
26    H12      4.1406   -4.3712   -0.9888 H       1  LIG   0.4556   0.4500 
27    O3       1.2755   -2.8480    3.0161 O.co2   1  LIG  -0.7858  -0.9000 
28    O4       2.7409   -0.9579   -0.2548 O.co2   1  LIG  -0.7562  -0.9000 
@<TRIPOS>BOND
1     1     6     ar
2     1     2     ar
3     1     14    1
4     2     3     ar
5     2     15    1
6     3     4     ar
7     3     16    1
8     4     5     ar
9     4     7     1
10    5     6     ar
11    5     17    1
12    6     18    1
13    7     19    1
14    7     20    1
15    7     24    1
16    8     9     1
17    8     12    1
18    8     21    1
19    8     24    1
20    9     10    1
21    9     22    1
22    9     23    1
23    10    11    2
24    10    27    1
25    12    13    2
26    12    28    1
27    24    25    1
28    24    26    1
@<TRIPOS>SUBSTRUCTURE
1   LIG    1    
 
########## Number      : 752
########## Name        : ZINC00009566
########## Description : AM1BCC_CHARGES =   1.0001 ORIGINAL_CHARGES =   1.0000

@<TRIPOS>MOLECULE
ZINC00009566
26    26    1     0     0    
SMALL
USER_CHARGES
****
****
@<TRIPOS>ATOM
1     C1       3.1426   -6.8757   -2.8259 C.ar    1  LIG  -0.0928  -0.1500 
2     C2       1.8581   -7.3112   -2.5061 C.ar    1  LIG  -0.1181  -0.1500 
3     C3       1.4094   -7.2568   -1.1857 C.ar    1  LIG  -0.0976  -0.1500 
4     C4       2.2431   -6.7642   -0.1722 C.ar    1  LIG  -0.1518  -0.1435 
5     C5       3.5341   -6.3305   -0.5047 C.ar    1  LIG  -0.1322  -0.1500 
6     C6       3.9805   -6.3864   -1.8258 C.ar    1  LIG  -0.1177  -0.1500 
7     C7       1.7529   -6.6853    1.2538 C.3     1  LIG  -0.0401   0.1435 
8     C8       1.3955   -5.2543    1.7007 C.3     1  LIG   0.0303   0.5640 
9     C9       0.1256   -4.7814    1.0014 C.2     1  LIG   0.5939   0.5690 
10    O1      -0.9921   -5.0313    1.4501 O.2     1  LIG  -0.5536  -0.5700 
11    N1       0.3700   -4.0814   -0.1545 N.am    1  LIG  -0.3151  -0.3945 
12    O2      -0.7547   -3.5588   -0.8093 O.3     1  LIG  -0.3999  -0.4355 
13    H1       1.2771   -3.7821   -0.4962 H       1  LIG   0.3367   0.3700 
14    H2      -1.0428   -4.3319   -1.3253 H       1  LIG   0.4541   0.4000 
15    H3       0.9502   -4.3168    3.5130 H       1  LIG   0.4654   0.4500 
16    H4       0.3801   -5.8669    3.4235 H       1  LIG   0.4823   0.4500 
17    H5       3.4910   -6.9193   -3.8539 H       1  LIG   0.1585   0.1500 
18    H6       1.2052   -7.6937   -3.2857 H       1  LIG   0.1577   0.1500 
19    H7       0.4031   -7.5986   -0.9556 H       1  LIG   0.1443   0.1500 
20    H8       4.2017   -5.9473    0.2632 H       1  LIG   0.1265   0.1500 
21    H9       4.9827   -6.0490   -2.0749 H       1  LIG   0.1551   0.1500 
22    H10      0.8863   -7.3483    1.3798 H       1  LIG   0.0874   0.0000 
23    H11      2.5387   -7.0964    1.9019 H       1  LIG   0.0736   0.0000 
24    H12      2.2319   -4.5778    1.4597 H       1  LIG   0.1267   0.0000 
25    N2       1.1714   -5.2601    3.1661 N.4     1  LIG  -0.8383  -0.8530 
26    H13      1.9988   -5.5884    3.6816 H       1  LIG   0.4648   0.4500 
@<TRIPOS>BOND
1     1     6     ar
2     1     2     ar
3     1     17    1
4     2     3     ar
5     2     18    1
6     3     4     ar
7     3     19    1
8     4     5     ar
9     4     7     1
10    5     6     ar
11    5     20    1
12    6     21    1
13    7     8     1
14    7     22    1
15    7     23    1
16    8     9     1
17    8     24    1
18    8     25    1
19    9     10    2
20    9     11    am
21    11    12    1
22    11    13    1
23    12    14    1
24    15    25    1
25    16    25    1
26    25    26    1
@<TRIPOS>SUBSTRUCTURE
1   LIG    1    
 
########## Number      : 753
########## Name        : ZINC00009568
########## Description : AM1BCC_CHARGES =   0.9998 ORIGINAL_CHARGES =   1.0000

@<TRIPOS>MOLECULE
ZINC00009568
27    27    1     0     0    
SMALL
USER_CHARGES
****
****
@<TRIPOS>ATOM
1     C1       2.4393   -6.6829    1.0396 C.ar    1  LIG  -0.0491  -0.1500 
2     C2       3.0315   -7.6882    0.2734 C.ar    1  LIG  -0.2132  -0.1500 
3     C3       4.2849   -7.4707   -0.2928 C.ar    1  LIG   0.1689   0.0825 
4     C4       4.9525   -6.2648   -0.1023 C.ar    1  LIG  -0.1517  -0.1500 
5     C5       4.3588   -5.2612    0.6639 C.ar    1  LIG  -0.0931  -0.1500 
6     C6       3.0960   -5.4600    1.2408 C.ar    1  LIG  -0.1946  -0.1435 
7     C7       2.4460   -4.3654    2.0535 C.3     1  LIG  -0.0287   0.1435 
8     C8       1.8859   -3.2146    1.1949 C.3     1  LIG   0.0291   0.5640 
9     C9       0.6586   -3.6805    0.4192 C.2     1  LIG   0.5938   0.5690 
10    O1      -0.4674   -3.6570    0.9139 O.2     1  LIG  -0.5528  -0.5700 
11    N1       0.9522   -4.1274   -0.8457 N.am    1  LIG  -0.3156  -0.3945 
12    O2      -0.1427   -4.5050   -1.6365 O.3     1  LIG  -0.4002  -0.4355 
13    O3       4.8935   -8.4320   -1.0488 O.3     1  LIG  -0.4732  -0.5325 
14    H1       1.8522   -4.0699   -1.3102 H       1  LIG   0.3355   0.3700 
15    H2      -0.2833   -5.4185   -1.3320 H       1  LIG   0.4532   0.4000 
16    H3       1.1395   -1.2983    1.5589 H       1  LIG   0.4643   0.4500 
17    H4       0.7563   -2.3837    2.7468 H       1  LIG   0.4820   0.4500 
18    H5       4.3142   -9.2123   -1.0850 H       1  LIG   0.4385   0.4500 
19    H6       1.4590   -6.8604    1.4756 H       1  LIG   0.1435   0.1500 
20    H7       2.5077   -8.6284    0.1274 H       1  LIG   0.1569   0.1500 
21    H8       5.9311   -6.1011   -0.5447 H       1  LIG   0.1720   0.1500 
22    H9       4.8892   -4.3231    0.8085 H       1  LIG   0.1282   0.1500 
23    H10      1.6493   -4.7956    2.6753 H       1  LIG   0.0854   0.0000 
24    H11      3.1964   -3.9791    2.7566 H       1  LIG   0.0702   0.0000 
25    H12      2.6649   -2.8696    0.4953 H       1  LIG   0.1239   0.0000 
26    N2       1.5003   -2.1003    2.0934 N.4     1  LIG  -0.8379  -0.8530 
27    H13      2.2954   -1.7620    2.6514 H       1  LIG   0.4645   0.4500 
@<TRIPOS>BOND
1     1     6     ar
2     1     2     ar
3     1     19    1
4     2     3     ar
5     2     20    1
6     3     4     ar
7     3     13    1
8     4     5     ar
9     4     21    1
10    5     6     ar
11    5     22    1
12    6     7     1
13    7     8     1
14    7     23    1
15    7     24    1
16    8     9     1
17    8     25    1
18    8     26    1
19    9     10    2
20    9     11    am
21    11    12    1
22    11    14    1
23    12    15    1
24    13    18    1
25    16    26    1
26    17    26    1
27    26    27    1
@<TRIPOS>SUBSTRUCTURE
1   LIG    1    
 
########## Number      : 754
########## Name        : ZINC00009685
########## Description : AM1BCC_CHARGES =   0.0000 ORIGINAL_CHARGES =   0.0000

@<TRIPOS>MOLECULE
ZINC00009685
23    24    1     0     0    
SMALL
USER_CHARGES
****
****
@<TRIPOS>ATOM
1     C1       2.9350   -7.0060    0.7551 C.ar    1  LIG  -0.0599  -0.1500 
2     C2       2.8215   -8.2463    0.1241 C.ar    1  LIG  -0.2247  -0.1500 
3     C3       2.7387   -8.3047   -1.2652 C.ar    1  LIG   0.1487   0.0825 
4     C4       2.7701   -7.1424   -2.0303 C.ar    1  LIG  -0.1636  -0.1500 
5     C5       2.8837   -5.9031   -1.3985 C.ar    1  LIG  -0.0392  -0.1500 
6     C6       2.9589   -5.8269   -0.0012 C.ar    1  LIG  -0.1459   0.0284 
7     C7       3.0947   -4.5363    0.6790 C.2     1  LIG   0.0713  -0.1784 
8     C8       2.1511   -3.5903    0.7341 C.2     1  LIG  -0.3229   0.0288 
9     C9       0.7837   -3.5844    0.1790 C.2     1  LIG   0.5659   0.5412 
10    O1       0.2144   -4.4513   -0.4510 O.2     1  LIG  -0.5020  -0.5700 
11    C10      0.2086   -2.2774    0.5580 C.2     1  LIG  -0.1895  -0.1356 
12    C11      1.0906   -1.5585    1.2648 C.2     1  LIG  -0.1906  -0.1356 
13    C12      2.3519   -2.3063    1.4331 C.2     1  LIG   0.5583   0.5412 
14    O2       3.3379   -1.9216    2.0279 O.2     1  LIG  -0.5052  -0.5700 
15    O3       2.6271   -9.5015   -1.9147 O.3     1  LIG  -0.4913  -0.5325 
16    H1       2.6153  -10.2134   -1.2525 H       1  LIG   0.4223   0.4500 
17    H2       3.0009   -6.9689    1.8401 H       1  LIG   0.1368   0.1500 
18    H3       2.8000   -9.1513    0.7240 H       1  LIG   0.1373   0.1500 
19    H4       2.7080   -7.1935   -3.1136 H       1  LIG   0.1578   0.1500 
20    H5       2.9115   -5.0013   -2.0057 H       1  LIG   0.1535   0.1500 
21    H6       4.0501   -4.3831    1.1761 H       1  LIG   0.1476   0.1500 
22    H7      -0.7908   -1.9766    0.2879 H       1  LIG   0.1677   0.1500 
23    H8       0.9341   -0.5714    1.6688 H       1  LIG   0.1676   0.1500 
@<TRIPOS>BOND
1     1     6     ar
2     1     2     ar
3     1     17    1
4     2     3     ar
5     2     18    1
6     3     4     ar
7     3     15    1
8     4     5     ar
9     4     19    1
10    5     6     ar
11    5     20    1
12    6     7     1
13    7     8     2
14    7     21    1
15    8     13    1
16    8     9     1
17    9     10    2
18    9     11    1
19    11    12    2
20    11    22    1
21    12    13    1
22    12    23    1
23    13    14    2
24    15    16    1
@<TRIPOS>SUBSTRUCTURE
1   LIG    1    
 
########## Number      : 755
########## Name        : ZINC00009686
########## Description : AM1BCC_CHARGES =  -0.0001 ORIGINAL_CHARGES =   0.0000

@<TRIPOS>MOLECULE
ZINC00009686
31    32    1     0     0    
SMALL
USER_CHARGES
****
****
@<TRIPOS>ATOM
1     C1      -2.4927    3.8252    3.5108 C.3     1  LIG   0.1205   0.2800 
2     O1      -2.7379    5.1882    3.1849 O.3     1  LIG  -0.3461  -0.3625 
3     C2      -2.0306    5.7125    2.1341 C.ar    1  LIG   0.0673   0.0825 
4     C3      -1.1284    5.0107    1.3331 C.ar    1  LIG  -0.1502  -0.1500 
5     C4      -0.4565    5.6620    0.2879 C.ar    1  LIG  -0.0688   0.0284 
6     C5      -0.7051    7.0186    0.0310 C.ar    1  LIG  -0.1807  -0.1500 
7     C6      -1.6077    7.7348    0.8212 C.ar    1  LIG   0.1202   0.0825 
8     C7      -2.2601    7.0694    1.8669 C.ar    1  LIG   0.1016   0.0825 
9     O2      -3.1467    7.7753    2.6435 O.3     1  LIG  -0.4704  -0.5325 
10    O3      -1.9204    9.0595    0.6613 O.3     1  LIG  -0.2996  -0.3625 
11    C8      -1.2643    9.7599   -0.3883 C.3     1  LIG   0.1096   0.2800 
12    C9       0.4848    4.9332   -0.5692 C.2     1  LIG   0.0622  -0.1784 
13    C10      1.6594    4.4307   -0.1738 C.2     1  LIG  -0.3122   0.0288 
14    C11      2.3122    4.4787    1.1490 C.2     1  LIG   0.5613   0.5412 
15    O4       1.9169    4.9943    2.1739 O.2     1  LIG  -0.4897  -0.5700 
16    C12      3.5931    3.7615    0.9843 C.2     1  LIG  -0.1884  -0.1356 
17    C13      3.7342    3.3262   -0.2746 C.2     1  LIG  -0.1906  -0.1356 
18    C14      2.5616    3.7038   -1.0877 C.2     1  LIG   0.5574   0.5412 
19    O5       2.3964    3.4546   -2.2643 O.2     1  LIG  -0.5016  -0.5700 
20    H1      -3.4983    7.1622    3.3132 H       1  LIG   0.4344   0.4500 
21    H2      -3.1112    3.5732    4.3777 H       1  LIG   0.0678   0.0000 
22    H3      -2.7874    3.1645    2.6889 H       1  LIG   0.0345   0.0000 
23    H4      -1.4461    3.6677    3.7920 H       1  LIG   0.0438   0.0000 
24    H5      -0.9298    3.9562    1.5025 H       1  LIG   0.1467   0.1500 
25    H6      -0.1782    7.4953   -0.7912 H       1  LIG   0.1449   0.1500 
26    H7      -1.6211   10.7943   -0.3730 H       1  LIG   0.0714   0.0000 
27    H8      -0.1806    9.7800   -0.2329 H       1  LIG   0.0345   0.0000 
28    H9      -1.5181    9.3354   -1.3652 H       1  LIG   0.0313   0.0000 
29    H10      0.1687    4.8290   -1.6050 H       1  LIG   0.1525   0.1500 
30    H11      4.2973    3.6274    1.7896 H       1  LIG   0.1680   0.1500 
31    H12      4.5720    2.7760   -0.6714 H       1  LIG   0.1683   0.1500 
@<TRIPOS>BOND
1     1     2     1
2     1     21    1
3     1     22    1
4     1     23    1
5     2     3     1
6     3     8     ar
7     3     4     ar
8     4     5     ar
9     4     24    1
10    5     6     ar
11    5     12    1
12    6     7     ar
13    6     25    1
14    7     8     ar
15    7     10    1
16    8     9     1
17    9     20    1
18    10    11    1
19    11    26    1
20    11    27    1
21    11    28    1
22    12    13    2
23    12    29    1
24    13    18    1
25    13    14    1
26    14    15    2
27    14    16    1
28    16    17    2
29    16    30    1
30    17    18    1
31    17    31    1
32    18    19    2
@<TRIPOS>SUBSTRUCTURE
1   LIG    1    
 
########## Number      : 756
########## Name        : ZINC00009708
########## Description : AM1BCC_CHARGES =   0.0001 ORIGINAL_CHARGES =  -0.0000

@<TRIPOS>MOLECULE
ZINC00009708
29    31    1     0     0    
SMALL
USER_CHARGES
****
****
@<TRIPOS>ATOM
1     C1       2.7873   -6.6388   -3.2135 C.3     1  LIG  -0.1178  -0.2000 
2     C2       4.0796   -6.5206   -2.4519 C.3     1  LIG  -0.1315  -0.2000 
3     C3       2.9005   -7.2250   -1.8283 C.3     1  LIG  -0.1298  -0.1950 
4     C4       2.1374   -6.6691   -0.6469 C.3     1  LIG   0.2625   0.5591 
5     C5       2.8906   -6.9181    0.6349 C.3     1  LIG  -0.1644  -0.1950 
6     C6       2.7966   -8.2542    1.3253 C.3     1  LIG  -0.1226  -0.2000 
7     C7       2.1507   -7.0465    1.9415 C.3     1  LIG  -0.1272  -0.2000 
8     N1       1.8833   -5.2420   -0.7626 N.pl3   1  LIG  -0.7773  -0.8191 
9     C8       0.7203   -4.5925   -0.4478 C.2     1  LIG   0.7619   0.6500 
10    N2       0.5216   -3.3102   -0.4924 N.2     1  LIG  -0.6918  -0.6960 
11    C9      -0.8903   -3.1521   -0.1345 C.3     1  LIG   0.0876   0.2460 
12    C10     -1.2955   -4.4839    0.4441 C.3     1  LIG   0.0940   0.2800 
13    O1      -0.3157   -5.3842   -0.0453 O.3     1  LIG  -0.4679  -0.4300 
14    H1       2.6736   -4.6593   -1.0189 H       1  LIG   0.4264   0.4000 
15    H2       2.7566   -7.3281   -4.0494 H       1  LIG   0.0673   0.1000 
16    H3       2.2058   -5.7383   -3.3658 H       1  LIG   0.0865   0.1000 
17    H4       4.9133   -7.1318   -2.7779 H       1  LIG   0.0687   0.1000 
18    H5       4.3694   -5.5424   -2.0912 H       1  LIG   0.0684   0.1000 
19    H6       2.9602   -8.3086   -1.7703 H       1  LIG   0.0854   0.1000 
20    H7       1.1842   -7.2117   -0.6252 H       1  LIG   0.0887   0.0000 
21    H8       3.8523   -6.4162    0.6580 H       1  LIG   0.0835   0.1000 
22    H9       2.1473   -9.0126    0.9052 H       1  LIG   0.0724   0.1000 
23    H10      3.6924   -8.6426    1.7945 H       1  LIG   0.0717   0.1000 
24    H11      2.6119   -6.6209    2.8245 H       1  LIG   0.0717   0.1000 
25    H12      1.0687   -6.9974    1.9356 H       1  LIG   0.0838   0.1000 
26    H13     -1.0358   -2.3398    0.5839 H       1  LIG   0.0632   0.0000 
27    H14     -1.4682   -2.9187   -1.0356 H       1  LIG   0.0651   0.0000 
28    H15     -1.2616   -4.4867    1.5386 H       1  LIG   0.0598   0.0000 
29    H16     -2.2934   -4.7912    0.1184 H       1  LIG   0.0618   0.0000 
@<TRIPOS>BOND
1     1     3     1
2     1     2     1
3     1     15    1
4     1     16    1
5     2     3     1
6     2     17    1
7     2     18    1
8     3     4     1
9     3     19    1
10    4     5     1
11    4     8     1
12    4     20    1
13    5     7     1
14    5     6     1
15    5     21    1
16    6     7     1
17    6     22    1
18    6     23    1
19    7     24    1
20    7     25    1
21    8     9     1
22    8     14    1
23    9     13    1
24    9     10    2
25    10    11    1
26    11    12    1
27    11    26    1
28    11    27    1
29    12    13    1
30    12    28    1
31    12    29    1
@<TRIPOS>SUBSTRUCTURE
1   LIG    1    
 
########## Number      : 757
########## Name        : ZINC00010402
########## Description : AM1BCC_CHARGES =   1.0001 ORIGINAL_CHARGES =   1.0000

@<TRIPOS>MOLECULE
ZINC00010402
41    43    1     0     0    
SMALL
USER_CHARGES
****
****
@<TRIPOS>ATOM
1     C1       5.2404   -9.9896    0.5973 C.3     1  LIG   0.0832   0.5030 
2     C2       5.1139   -9.1571    2.9303 C.3     1  LIG   0.0808   0.5030 
3     C3       6.1601   -7.7318    1.1232 C.3     1  LIG   0.1112   0.5030 
4     C4       5.7919   -6.3711    1.7072 C.3     1  LIG  -0.1570   0.0000 
5     C5       6.7844   -5.2917    1.2459 C.3     1  LIG   0.0416   0.3691 
6     N1       6.4260   -3.9760    1.8278 N.pl3   1  LIG  -0.1398  -0.5691 
7     C6       5.3830   -3.2614    1.1794 C.ar    1  LIG   0.0097   0.1000 
8     C7       5.2960   -3.1987   -0.2273 C.ar    1  LIG  -0.1359  -0.1500 
9     C8       4.2810   -2.4872   -0.8732 C.ar    1  LIG  -0.1106  -0.1500 
10    C9       3.3280   -1.8084   -0.1286 C.ar    1  LIG  -0.1224  -0.1500 
11    C10      3.3980   -1.8341    1.2604 C.ar    1  LIG  -0.0917  -0.1500 
12    C11      4.4198   -2.5438    1.9153 C.ar    1  LIG  -0.0192   0.1015 
13    S1       4.3929   -2.5296    3.6961 S.3     1  LIG  -0.1537  -0.2030 
14    C12      6.0472   -3.0611    4.0868 C.ar    1  LIG  -0.0185   0.1015 
15    C13      6.8654   -3.7316    3.1566 C.ar    1  LIG   0.0098   0.1000 
16    C14      8.1567   -4.1036    3.5863 C.ar    1  LIG  -0.1354  -0.1500 
17    C15      8.6016   -3.8556    4.8879 C.ar    1  LIG  -0.1106  -0.1500 
18    C16      7.7695   -3.2176    5.7955 C.ar    1  LIG  -0.1221  -0.1500 
19    C17      6.4980   -2.8190    5.3963 C.ar    1  LIG  -0.0920  -0.1500 
20    H1       5.1412   -9.6708   -0.4437 H       1  LIG   0.1053   0.0000 
21    H2       6.2162  -10.4485    0.7775 H       1  LIG   0.1063   0.0000 
22    H3       4.4291  -10.6772    0.8508 H       1  LIG   0.1058   0.0000 
23    H4       4.8596   -8.2776    3.5248 H       1  LIG   0.1105   0.0000 
24    H5       4.3491   -9.9246    3.0779 H       1  LIG   0.1040   0.0000 
25    H6       6.1044   -9.5392    3.1906 H       1  LIG   0.1052   0.0000 
26    H7       7.1268   -8.0934    1.4906 H       1  LIG   0.1040   0.0000 
27    H8       6.1920   -7.6708    0.0296 H       1  LIG   0.1009   0.0000 
28    H9       4.7750   -6.0984    1.3994 H       1  LIG   0.0761   0.0000 
29    H10      5.7915   -6.4146    2.8018 H       1  LIG   0.0772   0.0000 
30    H11      7.7989   -5.6012    1.5145 H       1  LIG   0.0651   0.0000 
31    H12      6.8082   -5.2662    0.1523 H       1  LIG   0.0638   0.0000 
32    H13      6.0399   -3.6746   -0.8600 H       1  LIG   0.1395   0.1500 
33    H14      4.2457   -2.4582   -1.9586 H       1  LIG   0.1456   0.1500 
34    H15      2.5377   -1.2539   -0.6257 H       1  LIG   0.1500   0.1500 
35    H16      2.6449   -1.2918    1.8288 H       1  LIG   0.1536   0.1500 
36    H17      8.8660   -4.5656    2.9054 H       1  LIG   0.1397   0.1500 
37    H18      9.6034   -4.1539    5.1842 H       1  LIG   0.1454   0.1500 
38    H19      8.1106   -3.0223    6.8078 H       1  LIG   0.1499   0.1500 
39    H20      5.8605   -2.3145    6.1197 H       1  LIG   0.1531   0.1500 
40    N2       5.1142   -8.7709    1.4749 N.4     1  LIG  -0.6807  -0.9590 
41    H21      4.1920   -8.3627    1.2700 H       1  LIG   0.4524   0.4500 
@<TRIPOS>BOND
1     1     20    1
2     1     21    1
3     1     22    1
4     1     40    1
5     2     23    1
6     2     24    1
7     2     25    1
8     2     40    1
9     3     4     1
10    3     26    1
11    3     27    1
12    3     40    1
13    4     5     1
14    4     28    1
15    4     29    1
16    5     6     1
17    5     30    1
18    5     31    1
19    6     15    1
20    6     7     1
21    7     12    ar
22    7     8     ar
23    8     9     ar
24    8     32    1
25    9     10    ar
26    9     33    1
27    10    11    ar
28    10    34    1
29    11    12    ar
30    11    35    1
31    12    13    1
32    13    14    1
33    14    19    ar
34    14    15    ar
35    15    16    ar
36    16    17    ar
37    16    36    1
38    17    18    ar
39    17    37    1
40    18    19    ar
41    18    38    1
42    19    39    1
43    40    41    1
@<TRIPOS>SUBSTRUCTURE
1   LIG    1    
 
########## Number      : 758
########## Name        : ZINC00010403
########## Description : AM1BCC_CHARGES =   1.9998 ORIGINAL_CHARGES =   2.0000

@<TRIPOS>MOLECULE
ZINC00010403
50    52    1     0     0    
SMALL
USER_CHARGES
****
****
@<TRIPOS>ATOM
1     C1       4.9641  -11.9627    0.8723 C.3     1  LIG   0.0700   0.5030 
2     C2       6.2432  -10.0541   -0.1202 C.3     1  LIG   0.0729   0.5030 
3     C3       5.0128   -9.7226    2.0883 C.3     1  LIG   0.0724   0.5030 
4     C4       3.7355   -9.1027    1.4694 C.3     1  LIG   0.1080   0.5030 
5     C5       3.9354   -7.5795    1.1927 C.3     1  LIG  -0.0198   0.3691 
6     N1       3.6951   -6.6536    2.3468 N.pl3   1  LIG  -0.1431  -0.5691 
7     C6       4.7740   -6.5847    3.2732 C.ar    1  LIG  -0.0730   0.1000 
8     C7       4.8325   -7.4667    4.3640 C.ar    1  LIG  -0.1562  -0.1500 
9     C8       5.8859   -7.4109    5.2785 C.ar    1  LIG  -0.1165  -0.1500 
10    C9       6.8882   -6.4579    5.1301 C.ar    1  LIG  -0.0938  -0.1500 
11    C10      6.8265   -5.5424    4.0816 C.ar    1  LIG  -0.0793  -0.1500 
12    C11      5.7668   -5.5878    3.1661 C.ar    1  LIG  -0.0059   0.1015 
13    S1       5.6876   -4.3346    1.8924 S.3     1  LIG  -0.0780  -0.2030 
14    C12      3.9234   -4.3008    1.6036 C.ar    1  LIG  -0.0144   0.1015 
15    C13      3.1229   -5.4346    1.8529 C.ar    1  LIG  -0.0516   0.1000 
16    C14      1.7411   -5.3567    1.6158 C.ar    1  LIG  -0.1225  -0.1500 
17    C15      1.1696   -4.1834    1.1228 C.ar    1  LIG  -0.0982  -0.1500 
18    C16      1.9694   -3.0737    0.8626 C.ar    1  LIG  -0.0882  -0.1500 
19    C17      3.3423   -3.1299    1.1018 C.ar    1  LIG  -0.0750  -0.1500 
20    C18      1.2286   -9.1988    1.5087 C.3     1  LIG   0.0812   0.5030 
21    C19      2.4014  -10.5271    3.2022 C.3     1  LIG   0.0698   0.5030 
22    H1       4.7084  -12.4121    1.8349 H       1  LIG   0.1078   0.0000 
23    H2       4.0683  -11.7347    0.2911 H       1  LIG   0.0969   0.0000 
24    H3       5.6232  -12.6344    0.3156 H       1  LIG   0.1349   0.0000 
25    H4       6.8224   -9.1709    0.1610 H       1  LIG   0.1194   0.0000 
26    H5       6.8922  -10.7803   -0.6171 H       1  LIG   0.1308   0.0000 
27    H6       5.4028   -9.7868   -0.7643 H       1  LIG   0.1016   0.0000 
28    H7       4.8676  -10.2883    3.0075 H       1  LIG   0.1106   0.0000 
29    H8       5.7751   -8.9675    2.2969 H       1  LIG   0.1567   0.0000 
30    H9       3.5383   -9.5663    0.4880 H       1  LIG   0.1004   0.0000 
31    H10      4.9315   -7.4004    0.7637 H       1  LIG   0.0661   0.0000 
32    H11      3.2414   -7.3348    0.3753 H       1  LIG   0.1022   0.0000 
33    H12      4.0517   -8.2025    4.5252 H       1  LIG   0.0969   0.1500 
34    H13      5.9189   -8.1073    6.1118 H       1  LIG   0.1568   0.1500 
35    H14      7.7069   -6.4134    5.8427 H       1  LIG   0.1729   0.1500 
36    H15      7.6029   -4.7851    3.9994 H       1  LIG   0.1773   0.1500 
37    H16      1.0969   -6.2041    1.8284 H       1  LIG   0.1145   0.1500 
38    H17      0.0990   -4.1342    0.9445 H       1  LIG   0.1618   0.1500 
39    H18      1.5231   -2.1611    0.4774 H       1  LIG   0.1722   0.1500 
40    H19      3.9480   -2.2504    0.8959 H       1  LIG   0.1726   0.1500 
41    H20      0.3756   -9.1231    2.1884 H       1  LIG   0.1245   0.0000 
42    H21      1.2774   -8.3092    0.8804 H       1  LIG   0.1198   0.0000 
43    H22      1.1632  -10.0995    0.8919 H       1  LIG   0.1024   0.0000 
44    H23      1.3974  -10.5756    3.6346 H       1  LIG   0.1349   0.0000 
45    H24      2.5884  -11.4000    2.5737 H       1  LIG   0.0864   0.0000 
46    H25      3.1169  -10.4436    4.0217 H       1  LIG   0.1052   0.0000 
47    N2       5.7187  -10.6906    1.1387 N.4     1  LIG  -0.6786  -0.9590 
48    H26      6.5610  -10.9869    1.6521 H       1  LIG   0.4764   0.4500 
49    N3       2.4913   -9.2873    2.3486 N.4     1  LIG  -0.6786  -0.9590 
50    H27      2.4593   -8.4842    2.9925 H       1  LIG   0.4962   0.4500 
@<TRIPOS>BOND
1     1     22    1
2     1     23    1
3     1     24    1
4     1     47    1
5     2     25    1
6     2     26    1
7     2     27    1
8     2     47    1
9     3     4     1
10    3     28    1
11    3     29    1
12    3     47    1
13    4     5     1
14    4     30    1
15    4     49    1
16    5     6     1
17    5     31    1
18    5     32    1
19    6     15    1
20    6     7     1
21    7     12    ar
22    7     8     ar
23    8     9     ar
24    8     33    1
25    9     10    ar
26    9     34    1
27    10    11    ar
28    10    35    1
29    11    12    ar
30    11    36    1
31    12    13    1
32    13    14    1
33    14    19    ar
34    14    15    ar
35    15    16    ar
36    16    17    ar
37    16    37    1
38    17    18    ar
39    17    38    1
40    18    19    ar
41    18    39    1
42    19    40    1
43    20    41    1
44    20    42    1
45    20    43    1
46    20    49    1
47    21    44    1
48    21    45    1
49    21    46    1
50    21    49    1
51    47    48    1
52    49    50    1
@<TRIPOS>SUBSTRUCTURE
1   LIG    1    
 
########## Number      : 759
########## Name        : ZINC00010465
########## Description : AM1BCC_CHARGES =   0.0000 ORIGINAL_CHARGES =   0.0000

@<TRIPOS>MOLECULE
ZINC00010465
30    32    1     0     0    
SMALL
USER_CHARGES
****
****
@<TRIPOS>ATOM
1     C1       0.9056    1.2193    1.7033 C.ar    1  LIG  -0.1256  -0.1500 
2     C2       0.0893    1.2675    0.5694 C.ar    1  LIG  -0.1074  -0.1500 
3     C3       0.1364    0.1994   -0.2999 C.ar    1  LIG   0.0523   0.0825 
4     C4       0.9529   -0.8826   -0.0710 C.ar    1  LIG   0.0575   0.0825 
5     C5       1.7690   -0.9574    1.0398 C.ar    1  LIG  -0.1081  -0.1500 
6     C6       1.7498    0.1115    1.9499 C.ar    1  LIG  -0.0750  -0.1435 
7     C7       2.6348    0.0896    3.1748 C.3     1  LIG   0.0443   0.2870 
8     C8       3.8937    0.9021    3.0283 C.ar    1  LIG  -0.4412  -0.1435 
9     C9       3.9288    2.2171    3.4648 C.ar    1  LIG   0.4976   0.1600 
10    N1       4.9945    3.0325    3.3471 N.ar    1  LIG  -0.7862  -0.6200 
11    C10      6.0821    2.5123    2.7521 C.ar    1  LIG   0.9202   0.7200 
12    N2       6.1478    1.2461    2.2898 N.ar    1  LIG  -0.8295  -0.6200 
13    C11      5.0672    0.4422    2.4403 C.ar    1  LIG   0.7307   0.4100 
14    N3       5.1610   -0.8448    1.9231 N.pl3   1  LIG  -0.9505  -0.9000 
15    N4       7.1940    3.3187    2.6039 N.pl3   1  LIG  -0.9603  -0.9000 
16    O1       0.8488   -1.8250   -1.0474 O.3     1  LIG  -0.3365  -0.3625 
17    C12     -0.1248   -1.2124   -1.9173 C.3     1  LIG   0.3216   0.5600 
18    O2      -0.5825    0.0722   -1.4480 O.3     1  LIG  -0.3343  -0.3625 
19    H1       6.0412   -1.0853    1.4837 H       1  LIG   0.4291   0.4000 
20    H2       4.6529   -1.5958    2.3698 H       1  LIG   0.4211   0.4000 
21    H3       7.1669    4.2699    2.9406 H       1  LIG   0.4431   0.4000 
22    H4       8.0207    2.9491    2.1582 H       1  LIG   0.4414   0.4000 
23    H5       0.8825    2.0526    2.4020 H       1  LIG   0.1374   0.1500 
24    H6      -0.5564    2.1184    0.3844 H       1  LIG   0.1550   0.1500 
25    H7       2.4039   -1.8226    1.1973 H       1  LIG   0.1462   0.1500 
26    H8       2.0554    0.4572    4.0332 H       1  LIG   0.0545   0.0000 
27    H9       2.8807   -0.9443    3.4478 H       1  LIG   0.0405   0.0000 
28    H10      3.0653    2.6762    3.9377 H       1  LIG   0.0192   0.1500 
29    H11      0.3225   -1.0845   -2.9097 H       1  LIG   0.0716   0.0000 
30    H12     -0.9882   -1.8821   -2.0042 H       1  LIG   0.0713   0.0000 
@<TRIPOS>BOND
1     1     6     ar
2     1     2     ar
3     1     23    1
4     2     3     ar
5     2     24    1
6     3     18    1
7     3     4     ar
8     4     5     ar
9     4     16    1
10    5     6     ar
11    5     25    1
12    6     7     1
13    7     8     1
14    7     26    1
15    7     27    1
16    8     13    ar
17    8     9     ar
18    9     10    ar
19    9     28    1
20    10    11    ar
21    11    12    ar
22    11    15    1
23    12    13    ar
24    13    14    1
25    14    19    1
26    14    20    1
27    15    21    1
28    15    22    1
29    16    17    1
30    17    18    1
31    17    29    1
32    17    30    1
@<TRIPOS>SUBSTRUCTURE
1   LIG    1    
 
########## Number      : 760
########## Name        : ZINC00010553
########## Description : AM1BCC_CHARGES =  -0.0001 ORIGINAL_CHARGES =  -0.0000

@<TRIPOS>MOLECULE
ZINC00010553
31    33    1     0     0    
SMALL
USER_CHARGES
****
****
@<TRIPOS>ATOM
1     C1       4.1784    4.5605   -0.0365 C.3     1  LIG  -0.0911   0.0000 
2     C2       4.2509    6.1016   -0.1243 C.3     1  LIG  -0.0793   0.1382 
3     C3       3.0580    6.4780   -0.9388 C.2     1  LIG  -0.1333  -0.2882 
4     C4       2.4186    5.4116   -1.4277 C.2     1  LIG  -0.1948  -0.2882 
5     C5       3.0683    4.1334   -1.0216 C.3     1  LIG   0.1087   0.3938 
6     N1       2.1082    3.2380   -0.3946 N.pl3   1  LIG  -0.0563   0.3140 
7     C6       1.2786    3.4511    0.6716 C.ar    1  LIG   0.5114   0.1054 
8     C7       0.6046    2.2553    0.8154 C.ar    1  LIG  -0.3417   0.2272 
9     C8      -0.3330    2.1637    1.8461 C.ar    1  LIG   0.8172   0.4100 
10    N2      -0.5035    3.2688    2.6281 N.ar    1  LIG  -0.8532  -0.6200 
11    C9       0.2182    4.3978    2.3960 C.ar    1  LIG   0.9434   0.7200 
12    N3       1.1369    4.5521    1.4199 N.ar    1  LIG  -0.7919  -0.5670 
13    N4      -0.0084    5.4767    3.2307 N.pl3   1  LIG  -0.9414  -0.9000 
14    N5      -1.0663    1.0181    2.0842 N.pl3   1  LIG  -0.9611  -0.9000 
15    N6       1.0322    1.3747   -0.1398 N.2     1  LIG  -0.1822  -0.2272 
16    N7       1.9559    1.9847   -0.8768 N.2     1  LIG  -0.1545  -0.4180 
17    C10      4.1742    6.7334    1.2671 C.3     1  LIG   0.1320   0.2800 
18    O1       4.4198    8.1340    1.1912 O.3     1  LIG  -0.5976  -0.6800 
19    H1      -0.6894    5.3978    3.9717 H       1  LIG   0.4387   0.4000 
20    H2       0.5070    6.3331    3.0884 H       1  LIG   0.4402   0.4000 
21    H3      -0.9438    0.1970    1.5078 H       1  LIG   0.4563   0.4000 
22    H4      -1.7318    1.0076    2.8446 H       1  LIG   0.4467   0.4000 
23    H5       5.3054    8.2563    0.8087 H       1  LIG   0.3938   0.4000 
24    H6       4.0015    4.2115    0.9881 H       1  LIG   0.0720   0.0000 
25    H7       5.1380    4.1262   -0.3448 H       1  LIG   0.0535   0.0000 
26    H8       5.1968    6.3827   -0.6132 H       1  LIG   0.0561   0.0000 
27    H9       2.7626    7.4996   -1.1353 H       1  LIG   0.1516   0.1500 
28    H10      1.5464    5.4716   -2.0643 H       1  LIG   0.1515   0.1500 
29    H11      3.5350    3.6047   -1.8673 H       1  LIG   0.0897   0.0000 
30    H12      3.1940    6.5878    1.7331 H       1  LIG   0.0906   0.0000 
31    H13      4.9287    6.3005    1.9330 H       1  LIG   0.0249   0.0000 
@<TRIPOS>BOND
1     1     5     1
2     1     2     1
3     1     24    1
4     1     25    1
5     2     3     1
6     2     17    1
7     2     26    1
8     3     4     2
9     3     27    1
10    4     5     1
11    4     28    1
12    5     6     1
13    5     29    1
14    6     16    1
15    6     7     1
16    7     12    ar
17    7     8     ar
18    8     9     ar
19    8     15    1
20    9     10    ar
21    9     14    1
22    10    11    ar
23    11    12    ar
24    11    13    1
25    13    19    1
26    13    20    1
27    14    21    1
28    14    22    1
29    15    16    2
30    17    18    1
31    17    30    1
32    17    31    1
33    18    23    1
@<TRIPOS>SUBSTRUCTURE
1   LIG    1    
 
########## Number      : 761
########## Name        : ZINC00010554
########## Description : AM1BCC_CHARGES =  -0.0001 ORIGINAL_CHARGES =   0.0000

@<TRIPOS>MOLECULE
ZINC00010554
30    32    1     0     0    
SMALL
USER_CHARGES
****
****
@<TRIPOS>ATOM
1     C1       4.2092    4.3149    0.4132 C.3     1  LIG  -0.0903   0.0000 
2     C2       4.4682    5.8162    0.1542 C.3     1  LIG  -0.0810   0.1382 
3     C3       3.4823    6.1795   -0.9063 C.2     1  LIG  -0.1330  -0.2882 
4     C4       2.8262    5.1148   -1.3766 C.2     1  LIG  -0.1950  -0.2882 
5     C5       3.2550    3.8530   -0.7096 C.3     1  LIG   0.1016   0.3938 
6     N1       2.1102    3.1286   -0.1788 N.pl3   1  LIG   0.0563   0.3140 
7     C6       1.1249    3.5384    0.6748 C.2     1  LIG   0.1406  -0.0256 
8     C7       0.3328    2.4265    0.8119 C.2     1  LIG   0.1052   0.1412 
9     C8      -0.8256    2.4855    1.6562 C.2     1  LIG   0.6630   0.7160 
10    N2      -0.9583    3.7523    2.2359 N.am    1  LIG  -0.5141  -0.4900 
11    C9      -0.0800    4.8339    2.0276 C.2     1  LIG   0.7063   0.5600 
12    N3       0.9743    4.7539    1.2484 N.2     1  LIG  -0.6732  -0.5760 
13    N4      -0.3933    5.9861    2.6927 N.pl3   1  LIG  -0.9042  -0.8500 
14    O1      -1.5911    1.5475    1.8403 O.2     1  LIG  -0.5894  -0.5700 
15    N5       0.8196    1.3955    0.0763 N.2     1  LIG  -0.2624  -0.2272 
16    N6       1.9204    1.8331   -0.5342 N.2     1  LIG  -0.1661  -0.4180 
17    C10      4.2254    6.6397    1.4206 C.3     1  LIG   0.1337   0.2800 
18    O2       4.6362    7.9887    1.2230 O.3     1  LIG  -0.5977  -0.6800 
19    H1      -1.2047    6.0563    3.2949 H       1  LIG   0.4221   0.4000 
20    H2       0.1891    6.8102    2.5940 H       1  LIG   0.4446   0.4000 
21    H3      -1.7503    3.8952    2.8527 H       1  LIG   0.3360   0.3700 
22    H4       5.5819    7.9773    0.9971 H       1  LIG   0.3963   0.4000 
23    H5       3.8110    4.1308    1.4183 H       1  LIG   0.0708   0.0000 
24    H6       5.1538    3.7594    0.3531 H       1  LIG   0.0575   0.0000 
25    H7       5.5094    5.9417   -0.1821 H       1  LIG   0.0593   0.0000 
26    H8       3.3375    7.1865   -1.2730 H       1  LIG   0.1531   0.1500 
27    H9       2.0890    5.1615   -2.1664 H       1  LIG   0.1537   0.1500 
28    H10      3.8078    3.1809   -1.3845 H       1  LIG   0.0957   0.0000 
29    H11      3.1696    6.6479    1.7116 H       1  LIG   0.0838   0.0000 
30    H12      4.8009    6.2382    2.2618 H       1  LIG   0.0267   0.0000 
@<TRIPOS>BOND
1     1     5     1
2     1     2     1
3     1     23    1
4     1     24    1
5     2     3     1
6     2     17    1
7     2     25    1
8     3     4     2
9     3     26    1
10    4     5     1
11    4     27    1
12    5     6     1
13    5     28    1
14    6     16    1
15    6     7     1
16    7     8     2
17    7     12    1
18    8     15    1
19    8     9     1
20    9     10    am
21    9     14    2
22    10    21    1
23    10    11    1
24    11    13    1
25    11    12    2
26    13    19    1
27    13    20    1
28    15    16    2
29    17    18    1
30    17    29    1
31    17    30    1
32    18    22    1
@<TRIPOS>SUBSTRUCTURE
1   LIG    1    
 
########## Number      : 762
########## Name        : ZINC00010571
########## Description : AM1BCC_CHARGES =   0.0001 ORIGINAL_CHARGES =   0.0000

@<TRIPOS>MOLECULE
ZINC00010571
26    26    1     0     0    
SMALL
USER_CHARGES
****
****
@<TRIPOS>ATOM
1     C1       4.7924  -10.0416   -1.3941 C.3     1  LIG  -0.0805   0.0000 
2     C2       5.8639   -8.9863   -1.1365 C.3     1  LIG  -0.0763   0.0000 
3     C3       5.2687   -7.7165   -0.5340 C.3     1  LIG  -0.0799   0.0000 
4     C4       4.1339   -7.1583   -1.3990 C.3     1  LIG   0.0906   0.3001 
5     C5       3.0600   -8.2224   -1.6564 C.3     1  LIG  -0.1040   0.0000 
6     C6       3.6581   -9.4930   -2.2547 C.3     1  LIG  -0.0738   0.0000 
7     N1       3.5454   -5.9832   -0.7675 N.am    1  LIG  -0.5327  -0.7301 
8     C7       2.9640   -4.9475   -1.4894 C.2     1  LIG   0.6874   0.6900 
9     O1       2.9081   -4.9041   -2.7174 O.2     1  LIG  -0.6318  -0.5700 
10    N2       2.4563   -3.9645   -0.6463 N.am    1  LIG  -0.3883  -0.4210 
11    N3       1.8356   -2.8466   -1.1824 N.3     1  LIG  -0.6522  -0.7290 
12    H1       3.4788   -5.9626    0.2443 H       1  LIG   0.2971   0.3700 
13    H2       2.5292   -4.0366    0.3627 H       1  LIG   0.2965   0.3700 
14    H3       2.5035   -2.4011   -1.8125 H       1  LIG   0.3472   0.3600 
15    H4       1.0739   -3.1771   -1.7760 H       1  LIG   0.3623   0.3600 
16    H5       4.3871  -10.3909   -0.4364 H       1  LIG   0.0399   0.0000 
17    H6       5.2419  -10.9110   -1.8869 H       1  LIG   0.0432   0.0000 
18    H7       6.6263   -9.3920   -0.4621 H       1  LIG   0.0433   0.0000 
19    H8       6.3687   -8.7408   -2.0790 H       1  LIG   0.0458   0.0000 
20    H9       4.8969   -7.9344    0.4760 H       1  LIG   0.0386   0.0000 
21    H10      6.0558   -6.9616   -0.4176 H       1  LIG   0.0526   0.0000 
22    H11      4.5500   -6.8432   -2.3648 H       1  LIG   0.0913   0.0000 
23    H12      2.5480   -8.4687   -0.7169 H       1  LIG   0.0376   0.0000 
24    H13      2.2917   -7.8280   -2.3324 H       1  LIG   0.0558   0.0000 
25    H14      4.0356   -9.2784   -3.2621 H       1  LIG   0.0471   0.0000 
26    H15      2.8762  -10.2532   -2.3621 H       1  LIG   0.0433   0.0000 
@<TRIPOS>BOND
1     1     6     1
2     1     2     1
3     1     16    1
4     1     17    1
5     2     3     1
6     2     18    1
7     2     19    1
8     3     4     1
9     3     20    1
10    3     21    1
11    4     5     1
12    4     7     1
13    4     22    1
14    5     6     1
15    5     23    1
16    5     24    1
17    6     25    1
18    6     26    1
19    7     8     am
20    7     12    1
21    8     9     2
22    8     10    am
23    10    11    1
24    10    13    1
25    11    14    1
26    11    15    1
@<TRIPOS>SUBSTRUCTURE
1   LIG    1    
 
########## Number      : 763
########## Name        : ZINC00010572
########## Description : AM1BCC_CHARGES =   0.0000 ORIGINAL_CHARGES =   0.0000

@<TRIPOS>MOLECULE
ZINC00010572
24    24    1     0     0    
SMALL
USER_CHARGES
****
****
@<TRIPOS>ATOM
1     C1       5.6872   -9.9057   -0.5314 C.ar    1  LIG  -0.1294  -0.1500 
2     C2       5.4452   -9.0131   -1.5741 C.ar    1  LIG  -0.1282  -0.1500 
3     C3       4.6297   -7.8996   -1.3665 C.ar    1  LIG  -0.1264  -0.1500 
4     C4       4.0523   -7.6671   -0.1109 C.ar    1  LIG  -0.0860  -0.1435 
5     C5       4.2966   -8.5740    0.9292 C.ar    1  LIG  -0.1258  -0.1500 
6     C6       5.1125   -9.6869    0.7193 C.ar    1  LIG  -0.1279  -0.1500 
7     C7       3.1563   -6.4754    0.1093 C.3     1  LIG  -0.0308   0.1435 
8     C8       1.6969   -6.8031   -0.1987 C.3     1  LIG  -0.1454   0.0610 
9     C9       0.7818   -5.6122    0.0184 C.2     1  LIG   0.6203   0.5690 
10    O1       1.1804   -4.5144    0.3988 O.2     1  LIG  -0.5985  -0.5700 
11    N1      -0.5396   -5.9246   -0.2651 N.am    1  LIG  -0.4451  -0.4210 
12    N2      -1.5206   -4.9554   -0.1227 N.3     1  LIG  -0.6330  -0.7290 
13    H1      -0.8227   -6.8487   -0.5777 H       1  LIG   0.3209   0.3700 
14    H2      -1.4777   -4.6168    0.8392 H       1  LIG   0.3546   0.3600 
15    H3      -1.2536   -4.1627   -0.7074 H       1  LIG   0.3441   0.3600 
16    H4       6.3216  -10.7722   -0.6939 H       1  LIG   0.1319   0.1500 
17    H5       5.8906   -9.1847   -2.5499 H       1  LIG   0.1319   0.1500 
18    H6       4.4468   -7.2144   -2.1905 H       1  LIG   0.1317   0.1500 
19    H7       3.8520   -8.4189    1.9091 H       1  LIG   0.1325   0.1500 
20    H8       5.2985  -10.3838    1.5316 H       1  LIG   0.1322   0.1500 
21    H9       3.2579   -6.1279    1.1456 H       1  LIG   0.0673   0.0000 
22    H10      3.4988   -5.6399   -0.5151 H       1  LIG   0.0667   0.0000 
23    H11      1.5920   -7.1297   -1.2409 H       1  LIG   0.0668   0.0000 
24    H12      1.3480   -7.6237    0.4406 H       1  LIG   0.0756   0.0000 
@<TRIPOS>BOND
1     1     6     ar
2     1     2     ar
3     1     16    1
4     2     3     ar
5     2     17    1
6     3     4     ar
7     3     18    1
8     4     5     ar
9     4     7     1
10    5     6     ar
11    5     19    1
12    6     20    1
13    7     8     1
14    7     21    1
15    7     22    1
16    8     9     1
17    8     23    1
18    8     24    1
19    9     10    2
20    9     11    am
21    11    12    1
22    11    13    1
23    12    14    1
24    12    15    1
@<TRIPOS>SUBSTRUCTURE
1   LIG    1    
 
########## Number      : 764
########## Name        : ZINC00010573
########## Description : AM1BCC_CHARGES =   0.0000 ORIGINAL_CHARGES =   0.0000

@<TRIPOS>MOLECULE
ZINC00010573
17    17    1     0     0    
SMALL
USER_CHARGES
****
****
@<TRIPOS>ATOM
1     C1       2.6978    2.9235    2.4910 C.ar    1  LIG  -0.0969  -0.1500 
2     C2       1.7324    3.6475    3.1802 C.ar    1  LIG  -0.2289  -0.1500 
3     C3       2.0007    3.9994    4.4914 C.ar    1  LIG   0.3935   0.1600 
4     N1       3.1411    3.6777    5.1408 N.ar    1  LIG  -0.6272  -0.6200 
5     C4       4.0617    2.9610    4.4490 C.ar    1  LIG   0.3577   0.3962 
6     C5       3.8869    2.5713    3.1254 C.ar    1  LIG  -0.2120  -0.1500 
7     C6       5.2919    2.6513    5.2248 C.2     1  LIG   0.5329   0.5438 
8     O1       5.5702    3.3385    6.2055 O.2     1  LIG  -0.5609  -0.5700 
9     N2       6.0408    1.5700    4.7860 N.am    1  LIG  -0.4313  -0.4210 
10    N3       7.2039    1.2284    5.4641 N.3     1  LIG  -0.6354  -0.7290 
11    H1       5.7669    0.9767    4.0099 H       1  LIG   0.3249   0.3700 
12    H2       7.8067    2.0521    5.4679 H       1  LIG   0.3575   0.3600 
13    H3       6.9504    1.0678    6.4398 H       1  LIG   0.3447   0.3600 
14    H4       2.5275    2.6374    1.4569 H       1  LIG   0.1452   0.1500 
15    H5       0.8010    3.9321    2.7041 H       1  LIG   0.1486   0.1500 
16    H6       1.2830    4.5686    5.0733 H       1  LIG   0.0305   0.1500 
17    H7       4.6400    2.0270    2.5679 H       1  LIG   0.1571   0.1500 
@<TRIPOS>BOND
1     1     6     ar
2     1     2     ar
3     1     14    1
4     2     3     ar
5     2     15    1
6     3     4     ar
7     3     16    1
8     4     5     ar
9     5     6     ar
10    5     7     1
11    6     17    1
12    7     8     2
13    7     9     am
14    9     10    1
15    9     11    1
16    10    12    1
17    10    13    1
@<TRIPOS>SUBSTRUCTURE
1   LIG    1    
 
########## Number      : 765
########## Name        : ZINC00010615
########## Description : AM1BCC_CHARGES =  -0.0000 ORIGINAL_CHARGES =   0.0000

@<TRIPOS>MOLECULE
ZINC00010615
30    32    1     0     0    
SMALL
USER_CHARGES
****
****
@<TRIPOS>ATOM
1     C1       2.0293   -4.5095   -0.0523 C.ar    1  LIG  -0.0888  -0.1500 
2     C2       3.1975   -4.5622    0.7107 C.ar    1  LIG  -0.1603  -0.1500 
3     C3       4.1898   -5.4823    0.3877 C.ar    1  LIG   0.1320   0.0825 
4     C4       4.0313   -6.3509   -0.6886 C.ar    1  LIG  -0.2136  -0.1500 
5     C5       2.8621   -6.2969   -1.4507 C.ar    1  LIG  -0.0536  -0.1500 
6     C6       1.8483   -5.3777   -1.1404 C.ar    1  LIG  -0.0799   0.0284 
7     C7       0.6201   -5.3262   -1.9512 C.2     1  LIG  -0.1933  -0.0140 
8     C8      -0.5858   -5.4657   -1.3800 C.2     1  LIG   0.0828  -0.0733 
9     O1      -1.8043   -5.4527   -2.0138 O.3     1  LIG  -0.2391  -0.1592 
10    C9      -1.8134   -5.2998   -3.3764 C.ar    1  LIG   0.1015   0.0825 
11    C10     -0.6452   -5.1455   -4.1229 C.ar    1  LIG  -0.2176   0.0862 
12    C11      0.6558   -5.1428   -3.4285 C.2     1  LIG   0.5976   0.4694 
13    O2       1.7014   -4.9871   -4.0464 O.2     1  LIG  -0.5335  -0.5700 
14    C12     -0.7079   -4.9921   -5.5131 C.ar    1  LIG  -0.0444  -0.1500 
15    C13     -1.9469   -4.9940   -6.1563 C.ar    1  LIG  -0.1653  -0.1500 
16    C14     -3.1109   -5.1482   -5.4082 C.ar    1  LIG   0.1605   0.0825 
17    C15     -3.0481   -5.3004   -4.0249 C.ar    1  LIG   0.0105   0.0825 
18    O3      -4.2164   -5.4488   -3.3292 O.3     1  LIG  -0.5093  -0.5325 
19    O4      -4.3099   -5.1461   -6.0638 O.3     1  LIG  -0.4837  -0.5325 
20    O5       5.3204   -5.5078    1.1540 O.3     1  LIG  -0.4967  -0.5325 
21    H1      -3.9910   -5.5417   -2.3865 H       1  LIG   0.4444   0.4500 
22    H2      -5.0059   -5.2635   -5.3923 H       1  LIG   0.4441   0.4500 
23    H3       5.9154   -6.1936    0.8057 H       1  LIG   0.4208   0.4500 
24    H4       1.2669   -3.7788    0.2086 H       1  LIG   0.1327   0.1500 
25    H5       3.3264   -3.8843    1.5497 H       1  LIG   0.1519   0.1500 
26    H6       4.8032   -7.0706   -0.9450 H       1  LIG   0.1375   0.1500 
27    H7       2.7501   -6.9835   -2.2872 H       1  LIG   0.1483   0.1500 
28    H8      -0.7385   -5.6165   -0.3181 H       1  LIG   0.1847   0.1500 
29    H9       0.1952   -4.8705   -6.1054 H       1  LIG   0.1666   0.1500 
30    H10     -1.9970   -4.8752   -7.2350 H       1  LIG   0.1632   0.1500 
@<TRIPOS>BOND
1     1     6     ar
2     1     2     ar
3     1     24    1
4     2     3     ar
5     2     25    1
6     3     4     ar
7     3     20    1
8     4     5     ar
9     4     26    1
10    5     6     ar
11    5     27    1
12    6     7     1
13    7     12    1
14    7     8     2
15    8     9     1
16    8     28    1
17    9     10    1
18    10    17    ar
19    10    11    ar
20    11    12    1
21    11    14    ar
22    12    13    2
23    14    15    ar
24    14    29    1
25    15    16    ar
26    15    30    1
27    16    17    ar
28    16    19    1
29    17    18    1
30    18    21    1
31    19    22    1
32    20    23    1
@<TRIPOS>SUBSTRUCTURE
1   LIG    1    
 
########## Number      : 766
########## Name        : ZINC00011032
########## Description : AM1BCC_CHARGES =   1.0000 ORIGINAL_CHARGES =   1.0000

@<TRIPOS>MOLECULE
ZINC00011032
47    50    1     0     0    
SMALL
USER_CHARGES
****
****
@<TRIPOS>ATOM
1     C1       3.1949  -12.1631   -1.2366 C.3     1  LIG   0.1034   0.2800 
2     O1       3.8785  -10.9202   -1.3390 O.3     1  LIG  -0.2852  -0.3625 
3     C2       3.8454  -10.0883   -0.2471 C.ar    1  LIG   0.1478   0.0825 
4     C3       3.2056  -10.3861    0.9605 C.ar    1  LIG  -0.1800  -0.1500 
5     C4       3.2140   -9.4731    2.0280 C.ar    1  LIG  -0.0822  -0.1435 
6     C5       3.8837   -8.2499    1.8964 C.ar    1  LIG  -0.1429  -0.1435 
7     C6       4.5374   -7.9615    0.6828 C.ar    1  LIG  -0.1748  -0.1500 
8     C7       4.5186   -8.8638   -0.3874 C.ar    1  LIG   0.1325   0.0825 
9     O2       5.1262   -8.6486   -1.5999 O.3     1  LIG  -0.2853  -0.3625 
10    C8       5.8010   -7.4104   -1.7850 C.3     1  LIG   0.1043   0.2800 
11    C9       3.9458   -7.2280    3.0234 C.3     1  LIG   0.2013   0.6465 
12    C10      3.1187   -5.9568    2.6952 C.3     1  LIG  -0.0481   0.1435 
13    C11      3.6880   -4.6785    3.2824 C.ar    1  LIG  -0.1037  -0.1435 
14    C12      3.5880   -3.5087    2.5028 C.ar    1  LIG  -0.1158  -0.1500 
15    C13      4.0954   -2.2911    2.9534 C.ar    1  LIG  -0.1047  -0.1500 
16    C14      4.7097   -2.2185    4.1956 C.ar    1  LIG  -0.1048  -0.1500 
17    C15      4.8007   -3.3604    4.9896 C.ar    1  LIG  -0.1133  -0.1500 
18    C16      4.2759   -4.5960    4.5608 C.ar    1  LIG  -0.1056  -0.1435 
19    C17      4.4179   -5.7703    5.5047 C.3     1  LIG  -0.0520   0.1435 
20    C18      3.2766   -6.7758    5.4463 C.3     1  LIG   0.1160   0.5030 
21    C19      2.2358   -8.6491    4.1805 C.3     1  LIG   0.1138   0.5030 
22    C20      2.5595   -9.8589    3.3242 C.3     1  LIG  -0.0556   0.1435 
23    H1       3.3126  -12.6879   -2.1896 H       1  LIG   0.0915   0.0000 
24    H2       3.6343  -12.7917   -0.4551 H       1  LIG   0.0399   0.0000 
25    H3       2.1231  -12.0124   -1.0707 H       1  LIG   0.0403   0.0000 
26    H4       2.6908  -11.3325    1.1029 H       1  LIG   0.1569   0.1500 
27    H5       5.0627   -7.0134    0.5994 H       1  LIG   0.1527   0.1500 
28    H6       6.2099   -7.4020   -2.8000 H       1  LIG   0.0918   0.0000 
29    H7       5.1090   -6.5662   -1.6987 H       1  LIG   0.0358   0.0000 
30    H8       6.6398   -7.3106   -1.0884 H       1  LIG   0.0377   0.0000 
31    H9       5.0076   -6.9308    3.1248 H       1  LIG   0.1085   0.0000 
32    H10      3.0897   -5.8278    1.6050 H       1  LIG   0.1004   0.0000 
33    H11      2.0692   -6.0472    2.9969 H       1  LIG   0.0683   0.0000 
34    H12      3.1155   -3.5411    1.5229 H       1  LIG   0.1432   0.1500 
35    H13      4.0141   -1.4041    2.3320 H       1  LIG   0.1551   0.1500 
36    H14      5.1141   -1.2750    4.5503 H       1  LIG   0.1557   0.1500 
37    H15      5.2826   -3.2783    5.9621 H       1  LIG   0.1439   0.1500 
38    H16      5.3892   -6.2535    5.3449 H       1  LIG   0.0693   0.0000 
39    H17      4.4322   -5.3768    6.5301 H       1  LIG   0.0963   0.0000 
40    H18      3.2413   -7.3445    6.3829 H       1  LIG   0.0927   0.0000 
41    H19      2.2985   -6.3035    5.2984 H       1  LIG   0.1114   0.0000 
42    H20      1.9068   -8.9707    5.1749 H       1  LIG   0.0960   0.0000 
43    H21      1.4576   -8.0200    3.7362 H       1  LIG   0.1057   0.0000 
44    H22      1.6306  -10.4074    3.1280 H       1  LIG   0.1021   0.0000 
45    H23      3.2343  -10.5323    3.8672 H       1  LIG   0.0774   0.0000 
46    N1       3.4858   -7.8234    4.3599 N.4     1  LIG  -0.6828  -0.9590 
47    H24      4.2403   -8.4225    4.7413 H       1  LIG   0.4451   0.4500 
@<TRIPOS>BOND
1     1     2     1
2     1     23    1
3     1     24    1
4     1     25    1
5     2     3     1
6     3     8     ar
7     3     4     ar
8     4     5     ar
9     4     26    1
10    5     22    1
11    5     6     ar
12    6     7     ar
13    6     11    1
14    7     8     ar
15    7     27    1
16    8     9     1
17    9     10    1
18    10    28    1
19    10    29    1
20    10    30    1
21    11    12    1
22    11    31    1
23    11    46    1
24    12    13    1
25    12    32    1
26    12    33    1
27    13    18    ar
28    13    14    ar
29    14    15    ar
30    14    34    1
31    15    16    ar
32    15    35    1
33    16    17    ar
34    16    36    1
35    17    18    ar
36    17    37    1
37    18    19    1
38    19    20    1
39    19    38    1
40    19    39    1
41    20    40    1
42    20    41    1
43    20    46    1
44    21    22    1
45    21    42    1
46    21    43    1
47    21    46    1
48    22    44    1
49    22    45    1
50    46    47    1
@<TRIPOS>SUBSTRUCTURE
1   LIG    1    
 
########## Number      : 767
########## Name        : ZINC00011050
########## Description : AM1BCC_CHARGES =   1.0001 ORIGINAL_CHARGES =   1.0000

@<TRIPOS>MOLECULE
ZINC00011050
17    17    1     0     0    
SMALL
USER_CHARGES
****
****
@<TRIPOS>ATOM
1     C1       4.9379   -9.3070   -1.4554 C.ar    1  LIG  -0.0692  -0.1500 
2     C2       5.7818   -9.7808   -0.4594 C.ar    1  LIG  -0.2009  -0.1500 
3     C3       5.6953   -9.1982    0.7927 C.ar    1  LIG   0.4282   0.1600 
4     N1       4.8405   -8.1975    1.1044 N.ar    1  LIG  -0.7137  -0.6200 
5     C4       4.0247   -7.7489    0.1174 C.ar    1  LIG   0.3215   0.1665 
6     C5       4.0450   -8.2779   -1.1712 C.ar    1  LIG  -0.2037  -0.1500 
7     C6       3.0676   -6.6365    0.4461 C.3     1  LIG   0.0693   0.6465 
8     H1       2.4802   -5.4050    2.0401 H       1  LIG   0.4592   0.4500 
9     H2       2.9484   -6.9307    2.5101 H       1  LIG   0.4724   0.4500 
10    H3       4.9745   -9.7375   -2.4519 H       1  LIG   0.1714   0.1500 
11    H4       6.4856  -10.5813   -0.6568 H       1  LIG   0.1762   0.1500 
12    H5       6.3322   -9.5315    1.6059 H       1  LIG   0.0503   0.1500 
13    H6       3.3828   -7.9032   -1.9454 H       1  LIG   0.1602   0.1500 
14    H7       3.2710   -5.7625   -0.1805 H       1  LIG   0.1165   0.0000 
15    H8       2.0351   -6.9658    0.2936 H       1  LIG   0.1163   0.0000 
16    N2       3.1476   -6.1640    1.8540 N.4     1  LIG  -0.8265  -0.8530 
17    H9       4.0915   -5.8179    2.0717 H       1  LIG   0.4726   0.4500 
@<TRIPOS>BOND
1     1     6     ar
2     1     2     ar
3     1     10    1
4     2     3     ar
5     2     11    1
6     3     4     ar
7     3     12    1
8     4     5     ar
9     5     6     ar
10    5     7     1
11    6     13    1
12    7     14    1
13    7     15    1
14    7     16    1
15    8     16    1
16    9     16    1
17    16    17    1
@<TRIPOS>SUBSTRUCTURE
1   LIG    1    
 
########## Number      : 768
########## Name        : ZINC00011113
########## Description : AM1BCC_CHARGES =   1.0001 ORIGINAL_CHARGES =   1.0000

@<TRIPOS>MOLECULE
ZINC00011113
26    27    1     0     0    
SMALL
USER_CHARGES
****
****
@<TRIPOS>ATOM
1     C1       4.8049   -9.6435   -0.9756 C.ar    1  LIG  -0.0788  -0.1500 
2     C2       4.6542  -10.2497    0.2593 C.ar    1  LIG  -0.2248  -0.1500 
3     C3       3.8339   -9.6247    1.1743 C.ar    1  LIG   0.4207   0.1600 
4     N1       3.1715   -8.4696    0.9320 N.ar    1  LIG  -0.6987  -0.6200 
5     C4       3.2970   -7.8748   -0.2860 C.ar    1  LIG   0.5528   0.4100 
6     C5       4.1307   -8.4525   -1.2512 C.ar    1  LIG  -0.2180  -0.1500 
7     N2       2.6197   -6.6699   -0.5444 N.pl3   1  LIG  -0.7296  -0.8382 
8     C6       1.9351   -6.0578    0.6044 C.3     1  LIG   0.1565   0.3691 
9     C7       1.6188   -4.5916    0.3336 C.3     1  LIG   0.0991   0.5030 
10    C8       1.6653   -5.0160   -2.1085 C.3     1  LIG   0.1023   0.5030 
11    C9       1.9872   -6.4864   -1.8590 C.3     1  LIG   0.1486   0.3691 
12    H1       5.4515  -10.0876   -1.7269 H       1  LIG   0.1593   0.1500 
13    H2       5.1664  -11.1735    0.4999 H       1  LIG   0.1659   0.1500 
14    H3       3.6793  -10.0446    2.1629 H       1  LIG   0.0414   0.1500 
15    H4       4.2977   -7.9871   -2.2169 H       1  LIG   0.1544   0.1500 
16    H5       1.0096   -6.6082    0.8171 H       1  LIG   0.0660   0.0000 
17    H6       2.5628   -6.0947    1.5035 H       1  LIG   0.1205   0.0000 
18    H7       0.9768   -4.1679    1.1113 H       1  LIG   0.1084   0.0000 
19    H8       2.5270   -3.9860    0.2432 H       1  LIG   0.1171   0.0000 
20    H9       1.0534   -4.8854   -3.0058 H       1  LIG   0.1076   0.0000 
21    H10      2.5720   -4.4079   -2.1962 H       1  LIG   0.1181   0.0000 
22    H11      2.6245   -6.8187   -2.6834 H       1  LIG   0.1120   0.0000 
23    H12      1.0666   -7.0826   -1.9000 H       1  LIG   0.0572   0.0000 
24    N3       0.8813   -4.4731   -0.9594 N.4     1  LIG  -0.7622  -0.9060 
25    H13      0.6569   -3.4843   -1.1353 H       1  LIG   0.4550   0.4500 
26    H14     -0.0231   -4.9605   -0.8915 H       1  LIG   0.4493   0.4500 
@<TRIPOS>BOND
1     1     6     ar
2     1     2     ar
3     1     12    1
4     2     3     ar
5     2     13    1
6     3     4     ar
7     3     14    1
8     4     5     ar
9     5     6     ar
10    5     7     1
11    6     15    1
12    7     11    1
13    7     8     1
14    8     9     1
15    8     16    1
16    8     17    1
17    9     18    1
18    9     19    1
19    9     24    1
20    10    11    1
21    10    20    1
22    10    21    1
23    10    24    1
24    11    22    1
25    11    23    1
26    24    25    1
27    24    26    1
@<TRIPOS>SUBSTRUCTURE
1   LIG    1    
 
########## Number      : 769
########## Name        : ZINC00011544
########## Description : AM1BCC_CHARGES =   0.0000 ORIGINAL_CHARGES =  -0.0000

@<TRIPOS>MOLECULE
ZINC00011544
34    37    1     0     0    
SMALL
USER_CHARGES
****
****
@<TRIPOS>ATOM
1     C1       0.1316  -10.7927    0.0750 C.3     1  LIG   0.1130   0.2800 
2     O1      -0.3019   -9.4432    0.1957 O.3     1  LIG  -0.3242  -0.3625 
3     C2      -0.1076   -8.6307   -0.8917 C.ar    1  LIG   0.1610   0.0825 
4     C3       0.4866   -9.0211   -2.1084 C.ar    1  LIG  -0.2447  -0.1500 
5     C4       0.6438   -8.1068   -3.1571 C.ar    1  LIG  -0.0409  -0.1500 
6     C5       0.1920   -6.8167   -2.9688 C.ar    1  LIG  -0.1989  -0.1435 
7     C6      -0.4007   -6.4319   -1.7733 C.ar    1  LIG   0.1522   0.0825 
8     C7      -0.5532   -7.3131   -0.7218 C.ar    1  LIG  -0.1789  -0.1500 
9     O2      -0.7747   -5.1067   -1.7403 O.3     1  LIG  -0.3156  -0.3625 
10    C8      -0.6951   -4.6710   -3.1179 C.3     1  LIG   0.1974   0.4235 
11    C9       0.2474   -5.6201   -3.8435 C.3     1  LIG  -0.0539   0.1435 
12    C10      1.6627   -5.0515   -3.9331 C.3     1  LIG   0.1354   0.2800 
13    O3       1.6735   -3.7688   -4.5636 O.3     1  LIG  -0.3226  -0.3625 
14    C11      0.8816   -2.8594   -3.9104 C.ar    1  LIG   0.1622   0.0825 
15    C12     -0.2530   -3.2337   -3.1785 C.ar    1  LIG  -0.1920  -0.1435 
16    C13     -1.0124   -2.2364   -2.5482 C.ar    1  LIG  -0.0350  -0.1500 
17    C14     -0.6489   -0.8929   -2.6533 C.ar    1  LIG  -0.2436  -0.1500 
18    C15      0.4718   -0.5424   -3.4018 C.ar    1  LIG   0.1571   0.0825 
19    C16      1.2370   -1.5156   -4.0374 C.ar    1  LIG  -0.1833  -0.1500 
20    O4       0.8500    0.7639   -3.5343 O.3     1  LIG  -0.4937  -0.5325 
21    H1       0.2249    1.3195   -3.0383 H       1  LIG   0.4219   0.4500 
22    H2      -0.0953  -11.3015    1.0169 H       1  LIG   0.0684   0.0000 
23    H3      -0.4106  -11.3119   -0.7222 H       1  LIG   0.0354   0.0000 
24    H4       1.2142  -10.8472   -0.0799 H       1  LIG   0.0348   0.0000 
25    H5       0.8440  -10.0345   -2.2661 H       1  LIG   0.1399   0.1500 
26    H6       1.1137   -8.4090   -4.0868 H       1  LIG   0.1365   0.1500 
27    H7      -1.0087   -6.9921    0.2093 H       1  LIG   0.1680   0.1500 
28    H8      -1.6857   -4.7431   -3.6026 H       1  LIG   0.0746   0.0000 
29    H9      -0.0875   -5.8619   -4.8646 H       1  LIG   0.0811   0.0000 
30    H10      2.1465   -4.9707   -2.9491 H       1  LIG   0.0587   0.0000 
31    H11      2.2964   -5.7167   -4.5316 H       1  LIG   0.0766   0.0000 
32    H12     -1.9002   -2.5027   -1.9792 H       1  LIG   0.1477   0.1500 
33    H13     -1.2501   -0.1360   -2.1583 H       1  LIG   0.1375   0.1500 
34    H14      2.1094   -1.2320   -4.6196 H       1  LIG   0.1679   0.1500 
@<TRIPOS>BOND
1     1     2     1
2     1     22    1
3     1     23    1
4     1     24    1
5     2     3     1
6     3     8     ar
7     3     4     ar
8     4     5     ar
9     4     25    1
10    5     6     ar
11    5     26    1
12    6     11    1
13    6     7     ar
14    7     8     ar
15    7     9     1
16    8     27    1
17    9     10    1
18    10    15    1
19    10    11    1
20    10    28    1
21    11    12    1
22    11    29    1
23    12    13    1
24    12    30    1
25    12    31    1
26    13    14    1
27    14    19    ar
28    14    15    ar
29    15    16    ar
30    16    17    ar
31    16    32    1
32    17    18    ar
33    17    33    1
34    18    19    ar
35    18    20    1
36    19    34    1
37    20    21    1
@<TRIPOS>SUBSTRUCTURE
1   LIG    1    
 
########## Number      : 770
########## Name        : ZINC00011679
########## Description : AM1BCC_CHARGES =   1.0001 ORIGINAL_CHARGES =   1.0000

@<TRIPOS>MOLECULE
ZINC00011679
48    51    1     0     0    
SMALL
USER_CHARGES
****
****
@<TRIPOS>ATOM
1     C1       5.1887   -2.1873    1.2101 C.3     1  LIG   0.0370   0.2556 
2     N1       4.4230   -1.6383    2.3028 N.pl3   1  LIG   0.1167   0.3140 
3     C2       4.3386   -2.1438    3.5724 C.ar    1  LIG  -0.0631  -0.1516 
4     C3       4.9218   -3.2671    4.1735 C.ar    1  LIG  -0.1159  -0.1500 
5     C4       4.6074   -3.5203    5.5108 C.ar    1  LIG  -0.0990  -0.1500 
6     C5       3.7398   -2.6871    6.2122 C.ar    1  LIG  -0.1358  -0.1500 
7     C6       3.1653   -1.5680    5.5968 C.ar    1  LIG  -0.0928  -0.1500 
8     C7       3.4802   -1.2811    4.2521 C.ar    1  LIG  -0.1829   0.0000 
9     C8       3.1238   -0.2829    3.2918 C.2     1  LIG   0.2503   0.2028 
10    N2       3.6862   -0.5358    2.0999 N.2     1  LIG  -0.4198  -0.7068 
11    C9       2.2621    0.8900    3.4238 C.2     1  LIG   0.6344   0.7160 
12    O1       1.6538    1.3562    2.4626 O.2     1  LIG  -0.5739  -0.5700 
13    N3       2.2251    1.4423    4.6962 N.am    1  LIG  -0.5835  -0.7301 
14    C10      1.4381    2.6321    5.0216 C.3     1  LIG   0.1134   0.3001 
15    C11      2.2090    3.9015    4.6499 C.3     1  LIG  -0.1354   0.0000 
16    C12      1.8072    5.1922    5.3786 C.3     1  LIG   0.1443   0.5030 
17    C13      2.8761    5.6256    6.4033 C.3     1  LIG  -0.1081   0.0000 
18    C14      3.0026    4.6542    7.5768 C.3     1  LIG  -0.0948   0.0000 
19    C15      1.6406    4.3273    8.1890 C.3     1  LIG  -0.1075   0.0000 
20    C16      0.5939    3.9139    7.1334 C.3     1  LIG   0.1413   0.5030 
21    C17      0.9546    2.5750    6.4721 C.3     1  LIG  -0.1101   0.0000 
22    C18     -0.7270    5.0270    5.2674 C.3     1  LIG   0.0826   0.5030 
23    H1       2.8568    1.0906    5.4075 H       1  LIG   0.3196   0.3700 
24    H2       4.7470   -3.1466    0.9295 H       1  LIG   0.0629   0.0000 
25    H3       5.1603   -1.5002    0.3603 H       1  LIG   0.0853   0.0000 
26    H4       6.2222   -2.3197    1.5399 H       1  LIG   0.0624   0.0000 
27    H5       5.5893   -3.9240    3.6258 H       1  LIG   0.1504   0.1500 
28    H6       5.0408   -4.3848    6.0074 H       1  LIG   0.1477   0.1500 
29    H7       3.5006   -2.9099    7.2490 H       1  LIG   0.1411   0.1500 
30    H8       2.4777   -0.9476    6.1634 H       1  LIG   0.1290   0.1500 
31    H9       0.5537    2.5810    4.3766 H       1  LIG   0.0877   0.0000 
32    H10      3.2886    3.7330    4.7619 H       1  LIG   0.0868   0.0000 
33    H11      2.0760    4.0658    3.5711 H       1  LIG   0.0967   0.0000 
34    H12      1.7176    6.0153    4.6500 H       1  LIG   0.1003   0.0000 
35    H13      3.8497    5.7376    5.9115 H       1  LIG   0.1010   0.0000 
36    H14      2.6121    6.6173    6.7939 H       1  LIG   0.0646   0.0000 
37    H15      3.4889    3.7308    7.2416 H       1  LIG   0.0656   0.0000 
38    H16      3.6563    5.0862    8.3432 H       1  LIG   0.0889   0.0000 
39    H17      1.7547    3.5366    8.9401 H       1  LIG   0.0981   0.0000 
40    H18      1.2737    5.2121    8.7258 H       1  LIG   0.0655   0.0000 
41    H19     -0.3682    3.8173    7.6639 H       1  LIG   0.0979   0.0000 
42    H20      0.0634    1.9317    6.4955 H       1  LIG   0.0853   0.0000 
43    H21      1.6827    2.0399    7.0963 H       1  LIG   0.0848   0.0000 
44    H22     -1.5898    5.0284    5.9390 H       1  LIG   0.0990   0.0000 
45    H23     -0.7177    5.9487    4.6793 H       1  LIG   0.0997   0.0000 
46    H24     -0.7558    4.1585    4.6128 H       1  LIG   0.1170   0.0000 
47    N4       0.5139    5.0114    6.1151 N.4     1  LIG  -0.6786  -0.9590 
48    H25      0.4044    5.8735    6.6672 H       1  LIG   0.4440   0.4500 
@<TRIPOS>BOND
1     1     2     1
2     1     24    1
3     1     25    1
4     1     26    1
5     2     10    1
6     2     3     1
7     3     8     ar
8     3     4     ar
9     4     5     ar
10    4     27    1
11    5     6     ar
12    5     28    1
13    6     7     ar
14    6     29    1
15    7     8     ar
16    7     30    1
17    8     9     1
18    9     10    2
19    9     11    1
20    11    12    2
21    11    13    am
22    13    14    1
23    13    23    1
24    14    21    1
25    14    15    1
26    14    31    1
27    15    16    1
28    15    32    1
29    15    33    1
30    16    17    1
31    16    34    1
32    16    47    1
33    17    18    1
34    17    35    1
35    17    36    1
36    18    19    1
37    18    37    1
38    18    38    1
39    19    20    1
40    19    39    1
41    19    40    1
42    20    21    1
43    20    41    1
44    20    47    1
45    21    42    1
46    21    43    1
47    22    44    1
48    22    45    1
49    22    46    1
50    22    47    1
51    47    48    1
@<TRIPOS>SUBSTRUCTURE
1   LIG    1    
 
########## Number      : 771
########## Name        : ZINC00011937
########## Description : AM1BCC_CHARGES =   0.0002 ORIGINAL_CHARGES =   0.0000

@<TRIPOS>MOLECULE
ZINC00011937
26    28    1     0     0    
SMALL
USER_CHARGES
****
****
@<TRIPOS>ATOM
1     C1       4.9535   -8.2831    1.4450 C.ar    1  LIG  -0.2308  -0.1500 
2     C2       4.9411   -9.6666    1.3514 C.ar    1  LIG   0.3937   0.1600 
3     N1       4.9534  -10.3467    0.1846 N.ar    1  LIG  -0.6584  -0.6200 
4     C3       4.9762   -9.6024   -0.9422 C.ar    1  LIG   0.3939   0.1600 
5     C4       4.9902   -8.2158   -0.9578 C.ar    1  LIG  -0.2308  -0.1500 
6     C5       4.9841   -7.5366    0.2637 C.ar    1  LIG  -0.0452  -0.1435 
7     C6       4.9816   -6.0316    0.3058 C.3     1  LIG  -0.0074   0.3735 
8     S1       3.2817   -5.3719    0.2983 S.3     1  LIG  -0.1576  -0.3315 
9     C7       3.5963   -3.6331    0.3518 C.ar    1  LIG   0.5638   0.4115 
10    C8       2.5174   -2.7449    0.3602 C.ar    1  LIG  -0.1610   0.2272 
11    C9       2.8265   -1.3937    0.4027 C.ar    1  LIG   0.4322   0.1054 
12    N2       1.6239   -0.7469    0.4024 N.pl3   1  LIG  -0.3779   0.0332 
13    C10      0.6485   -1.7057    0.3607 C.2     1  LIG   0.4144   0.0365 
14    N3       1.1521   -2.9214    0.3344 N.2     1  LIG  -0.5272  -0.5653 
15    N4       4.0455   -0.8362    0.4369 N.ar    1  LIG  -0.6989  -0.5670 
16    C11      5.0025   -1.7864    0.4250 C.ar    1  LIG   0.6633   0.4700 
17    N5       4.8572   -3.1312    0.3851 N.ar    1  LIG  -0.7498  -0.6200 
18    H1       1.4841    0.2538    0.4283 H       1  LIG   0.3211   0.2700 
19    H2       4.9382   -7.8011    2.4170 H       1  LIG   0.1480   0.1500 
20    H3       4.9188  -10.2829    2.2444 H       1  LIG   0.0246   0.1500 
21    H4       4.9817  -10.1678   -1.8685 H       1  LIG   0.0246   0.1500 
22    H5       5.0042   -7.6802   -1.9013 H       1  LIG   0.1493   0.1500 
23    H6       5.5054   -5.6893    1.2060 H       1  LIG   0.0915   0.0000 
24    H7       5.5324   -5.6400   -0.5574 H       1  LIG   0.0919   0.0000 
25    H8      -0.4029   -1.4544    0.3517 H       1  LIG   0.0771   0.1500 
26    H9       6.0255   -1.4258    0.4507 H       1  LIG   0.0558   0.1500 
@<TRIPOS>BOND
1     1     6     ar
2     1     2     ar
3     1     19    1
4     2     3     ar
5     2     20    1
6     3     4     ar
7     4     5     ar
8     4     21    1
9     5     6     ar
10    5     22    1
11    6     7     1
12    7     8     1
13    7     23    1
14    7     24    1
15    8     9     1
16    9     17    ar
17    9     10    ar
18    10    14    1
19    10    11    ar
20    11    12    1
21    11    15    ar
22    12    13    1
23    12    18    1
24    13    14    2
25    13    25    1
26    15    16    ar
27    16    17    ar
28    16    26    1
@<TRIPOS>SUBSTRUCTURE
1   LIG    1    
 
########## Number      : 772
########## Name        : ZINC00011938
########## Description : AM1BCC_CHARGES =  -0.0001 ORIGINAL_CHARGES =   0.0000

@<TRIPOS>MOLECULE
ZINC00011938
26    28    1     0     0    
SMALL
USER_CHARGES
****
****
@<TRIPOS>ATOM
1     C1       2.1031   -8.4182    2.8519 C.ar    1  LIG  -0.2469  -0.1500 
2     C2       2.4550   -7.6016    1.7820 C.ar    1  LIG  -0.0753  -0.1500 
3     C3       3.4382   -6.6218    1.9434 C.ar    1  LIG  -0.2030  -0.1435 
4     C4       4.0188   -6.5081    3.2036 C.ar    1  LIG   0.4132   0.1600 
5     N1       3.7014   -7.2854    4.2644 N.ar    1  LIG  -0.6630  -0.6200 
6     C5       2.7503   -8.2224    4.0602 C.ar    1  LIG   0.4011   0.1600 
7     C6       3.8307   -5.7117    0.8155 C.3     1  LIG   0.0069   0.3735 
8     S1       2.8000   -4.2080    0.7878 S.3     1  LIG  -0.1647  -0.3315 
9     C7       3.4783   -3.3618   -0.6083 C.ar    1  LIG   0.5645   0.4115 
10    C8       2.9403   -2.1284   -0.9856 C.ar    1  LIG  -0.1621   0.2272 
11    C9       3.5138   -1.5125   -2.0878 C.ar    1  LIG   0.4320   0.1054 
12    N2       2.8245   -0.3449   -2.2496 N.pl3   1  LIG  -0.3780   0.0332 
13    C10      1.8780   -0.2934   -1.2627 C.2     1  LIG   0.4133   0.0365 
14    N3       1.9199   -1.3527   -0.4828 N.2     1  LIG  -0.5266  -0.5653 
15    N4       4.5294   -1.9637   -2.8381 N.ar    1  LIG  -0.6995  -0.5670 
16    C11      4.9643   -3.1556   -2.3810 C.ar    1  LIG   0.6630   0.4700 
17    N5       4.5093   -3.8736   -1.3279 N.ar    1  LIG  -0.7489  -0.6200 
18    H1       2.9861    0.3496   -2.9660 H       1  LIG   0.3207   0.2700 
19    H2       1.3436   -9.1840    2.7430 H       1  LIG   0.1461   0.1500 
20    H3       1.9583   -7.7326    0.8240 H       1  LIG   0.1440   0.1500 
21    H4       4.7823   -5.7621    3.4045 H       1  LIG   0.0279   0.1500 
22    H5       2.5113   -8.8335    4.9245 H       1  LIG   0.0243   0.1500 
23    H6       4.8857   -5.4325    0.9198 H       1  LIG   0.0898   0.0000 
24    H7       3.7297   -6.2444   -0.1372 H       1  LIG   0.0890   0.0000 
25    H8       1.1933    0.5377   -1.1674 H       1  LIG   0.0767   0.1500 
26    H9       5.7886   -3.5990   -2.9298 H       1  LIG   0.0554   0.1500 
@<TRIPOS>BOND
1     1     6     ar
2     1     2     ar
3     1     19    1
4     2     3     ar
5     2     20    1
6     3     4     ar
7     3     7     1
8     4     5     ar
9     4     21    1
10    5     6     ar
11    6     22    1
12    7     8     1
13    7     23    1
14    7     24    1
15    8     9     1
16    9     17    ar
17    9     10    ar
18    10    14    1
19    10    11    ar
20    11    12    1
21    11    15    ar
22    12    13    1
23    12    18    1
24    13    14    2
25    13    25    1
26    15    16    ar
27    16    17    ar
28    16    26    1
@<TRIPOS>SUBSTRUCTURE
1   LIG    1    
 
########## Number      : 773
########## Name        : ZINC00012163
########## Description : AM1BCC_CHARGES =  -0.0002 ORIGINAL_CHARGES =   0.0000

@<TRIPOS>MOLECULE
ZINC00012163
36    37    1     0     0    
SMALL
USER_CHARGES
****
****
@<TRIPOS>ATOM
1     C1       4.6861  -10.7306   -0.2809 C.ar    1  LIG  -0.1308  -0.1500 
2     C2       4.3795  -10.1962    0.9692 C.ar    1  LIG  -0.1276  -0.1500 
3     C3       4.6025   -8.8422    1.2248 C.ar    1  LIG  -0.1253  -0.1500 
4     C4       5.1393   -8.0115    0.2319 C.ar    1  LIG  -0.0786  -0.1435 
5     C5       5.4377   -8.5573   -1.0239 C.ar    1  LIG  -0.1254  -0.1500 
6     C6       5.2139   -9.9115   -1.2774 C.ar    1  LIG  -0.1275  -0.1500 
7     C7       5.3639   -6.5455    0.5011 C.3     1  LIG  -0.0368   0.1435 
8     C8       4.1315   -5.7101    0.1488 C.3     1  LIG  -0.0716   0.0000 
9     C9       4.3709   -4.2252    0.4260 C.3     1  LIG  -0.1446   0.0610 
10    C10      3.1631   -3.3642    0.0832 C.2     1  LIG   0.6637   0.5690 
11    O1       2.1255   -3.8752   -0.3444 O.2     1  LIG  -0.6064  -0.5700 
12    N1       3.3091   -1.9918    0.2872 N.am    1  LIG  -0.4840  -0.6602 
13    C11      4.5371   -1.3147    0.7198 C.3     1  LIG   0.0645   0.3001 
14    C12      4.2214   -0.2693    1.7848 C.3     1  LIG   0.1095   0.2800 
15    O2       3.2189    0.6383    1.3176 O.3     1  LIG  -0.4106  -0.5600 
16    C13      1.9989   -0.0519    1.0293 C.3     1  LIG   0.1073   0.2800 
17    C14      2.2196   -1.0824   -0.0711 C.3     1  LIG   0.0570   0.3001 
18    H1       4.5116  -11.7841   -0.4793 H       1  LIG   0.1308   0.1500 
19    H2       3.9648  -10.8333    1.7451 H       1  LIG   0.1308   0.1500 
20    H3       4.3538   -8.4386    2.2031 H       1  LIG   0.1304   0.1500 
21    H4       5.8453   -7.9297   -1.8126 H       1  LIG   0.1304   0.1500 
22    H5       5.4497  -10.3267   -2.2531 H       1  LIG   0.1308   0.1500 
23    H6       6.2325   -6.1990   -0.0732 H       1  LIG   0.0443   0.0000 
24    H7       5.6264   -6.4055    1.5574 H       1  LIG   0.0441   0.0000 
25    H8       3.2657   -6.0584    0.7268 H       1  LIG   0.0671   0.0000 
26    H9       3.8736   -5.8507   -0.9089 H       1  LIG   0.0641   0.0000 
27    H10      5.2238   -3.8809   -0.1699 H       1  LIG   0.0623   0.0000 
28    H11      4.6005   -4.0901    1.4891 H       1  LIG   0.0614   0.0000 
29    H12      5.2845   -2.0135    1.0983 H       1  LIG   0.0550   0.0000 
30    H13      4.9500   -0.8292   -0.1723 H       1  LIG   0.0499   0.0000 
31    H14      3.8767   -0.7396    2.7135 H       1  LIG   0.0365   0.0000 
32    H15      5.1189    0.3124    2.0171 H       1  LIG   0.0735   0.0000 
33    H16      1.6249   -0.5216    1.9469 H       1  LIG   0.0395   0.0000 
34    H17      1.2613    0.6897    0.7074 H       1  LIG   0.0754   0.0000 
35    H18      2.5247   -0.5838   -0.9988 H       1  LIG   0.0488   0.0000 
36    H19      1.2938   -1.6304   -0.2701 H       1  LIG   0.0919   0.0000 
@<TRIPOS>BOND
1     1     6     ar
2     1     2     ar
3     1     18    1
4     2     3     ar
5     2     19    1
6     3     4     ar
7     3     20    1
8     4     5     ar
9     4     7     1
10    5     6     ar
11    5     21    1
12    6     22    1
13    7     8     1
14    7     23    1
15    7     24    1
16    8     9     1
17    8     25    1
18    8     26    1
19    9     10    1
20    9     27    1
21    9     28    1
22    10    11    2
23    10    12    am
24    12    17    1
25    12    13    1
26    13    14    1
27    13    29    1
28    13    30    1
29    14    15    1
30    14    31    1
31    14    32    1
32    15    16    1
33    16    17    1
34    16    33    1
35    16    34    1
36    17    35    1
37    17    36    1
@<TRIPOS>SUBSTRUCTURE
1   LIG    1    
 
########## Number      : 774
########## Name        : ZINC00012187
########## Description : AM1BCC_CHARGES =   0.0001 ORIGINAL_CHARGES =  -0.0000

@<TRIPOS>MOLECULE
ZINC00012187
31    33    1     0     0    
SMALL
USER_CHARGES
****
****
@<TRIPOS>ATOM
1     C1       7.2815   -7.5684   -0.4375 C.3     1  LIG   0.1119   0.2800 
2     O1       6.2648   -6.9355    0.3292 O.3     1  LIG  -0.3061  -0.3625 
3     C2       5.5073   -7.7275    1.1523 C.ar    1  LIG   0.1765   0.0825 
4     C3       5.6129   -9.1217    1.2249 C.ar    1  LIG  -0.2125  -0.1500 
5     C4       4.7768   -9.8549    2.0720 C.ar    1  LIG  -0.0732  -0.1500 
6     C5       3.8264   -9.2066    2.8558 C.ar    1  LIG  -0.1698  -0.1500 
7     C6       3.7073   -7.8203    2.7967 C.ar    1  LIG  -0.0778  -0.1500 
8     C7       4.5426   -7.0815    1.9469 C.ar    1  LIG  -0.1828   0.0862 
9     C8       4.4027   -5.6070    1.9301 C.2     1  LIG   0.5584   0.4238 
10    N1       3.1112   -5.1274    1.7777 N.am    1  LIG  -0.4944  -0.4900 
11    C9       2.7983   -3.7808    1.7430 C.2     1  LIG   0.7078   0.5438 
12    O2       1.6597   -3.3491    1.6068 O.2     1  LIG  -0.6299  -0.5700 
13    C10      3.9577   -2.8769    1.8820 C.ar    1  LIG  -0.1904   0.0862 
14    C11      3.7837   -1.4899    1.8636 C.ar    1  LIG  -0.0602  -0.1500 
15    C12      4.8941   -0.6574    1.9941 C.ar    1  LIG  -0.1552  -0.1500 
16    C13      6.1665   -1.2085    2.1412 C.ar    1  LIG  -0.0968  -0.1500 
17    C14      6.3328   -2.5951    2.1586 C.ar    1  LIG  -0.1226  -0.1500 
18    C15      5.2300   -3.4452    2.0294 C.ar    1  LIG   0.1837   0.1790 
19    N2       5.4376   -4.8358    2.0528 N.2     1  LIG  -0.5980  -0.6290 
20    H1       2.3400   -5.7787    1.6707 H       1  LIG   0.3376   0.3700 
21    H2       7.8068   -6.7909   -1.0007 H       1  LIG   0.0742   0.0000 
22    H3       8.0144   -8.0634    0.2081 H       1  LIG   0.0390   0.0000 
23    H4       6.8509   -8.2686   -1.1607 H       1  LIG   0.0323   0.0000 
24    H5       6.3337   -9.6744    0.6301 H       1  LIG   0.1436   0.1500 
25    H6       4.8697  -10.9366    2.1185 H       1  LIG   0.1377   0.1500 
26    H7       3.1826   -9.7807    3.5160 H       1  LIG   0.1409   0.1500 
27    H8       2.9733   -7.3287    3.4300 H       1  LIG   0.1426   0.1500 
28    H9       2.7977   -1.0482    1.7489 H       1  LIG   0.1575   0.1500 
29    H10      4.7683    0.4216    1.9808 H       1  LIG   0.1384   0.1500 
30    H11      7.0310   -0.5583    2.2425 H       1  LIG   0.1353   0.1500 
31    H12      7.3305   -3.0116    2.2739 H       1  LIG   0.1524   0.1500 
@<TRIPOS>BOND
1     1     2     1
2     1     21    1
3     1     22    1
4     1     23    1
5     2     3     1
6     3     8     ar
7     3     4     ar
8     4     5     ar
9     4     24    1
10    5     6     ar
11    5     25    1
12    6     7     ar
13    6     26    1
14    7     8     ar
15    7     27    1
16    8     9     1
17    9     19    2
18    9     10    1
19    10    11    am
20    10    20    1
21    11    12    2
22    11    13    1
23    13    18    ar
24    13    14    ar
25    14    15    ar
26    14    28    1
27    15    16    ar
28    15    29    1
29    16    17    ar
30    16    30    1
31    17    18    ar
32    17    31    1
33    18    19    1
@<TRIPOS>SUBSTRUCTURE
1   LIG    1    
 
########## Number      : 775
########## Name        : ZINC00012342
########## Description : AM1BCC_CHARGES =   0.0000 ORIGINAL_CHARGES =   0.0000

@<TRIPOS>MOLECULE
ZINC00012342
44    45    1     0     0    
SMALL
USER_CHARGES
****
****
@<TRIPOS>ATOM
1     C1       3.9754   -2.6830    4.2621 C.3     1  LIG  -0.0926   0.0000 
2     C2       4.0678   -4.1808    4.6105 C.3     1  LIG  -0.0575   0.0000 
3     C3       5.4408   -4.4696    5.2535 C.3     1  LIG  -0.0353   0.1435 
4     C4       5.6103   -5.8788    5.7683 C.ar    1  LIG  -0.0711  -0.1435 
5     C5       4.8219   -6.3527    6.8289 C.ar    1  LIG  -0.1308  -0.1500 
6     C6       4.9725   -7.6586    7.3018 C.ar    1  LIG  -0.1656  -0.1500 
7     C7       5.9173   -8.4957    6.7153 C.ar    1  LIG   0.0351   0.0825 
8     C8       6.7080   -8.0329    5.6678 C.ar    1  LIG   0.1152   0.0825 
9     C9       6.5634   -6.7316    5.1940 C.ar    1  LIG  -0.1362  -0.1500 
10    O1       7.6413   -8.8390    5.0788 O.3     1  LIG  -0.4926  -0.5325 
11    O2       6.0891   -9.7792    7.1522 O.3     1  LIG  -0.5166  -0.5325 
12    C10      3.8242   -5.0921    3.3593 C.3     1  LIG  -0.0606   0.0000 
13    C11      2.3457   -4.9982    2.9286 C.3     1  LIG  -0.0907   0.0000 
14    C12      4.7579   -4.7232    2.1840 C.3     1  LIG  -0.0309   0.1435 
15    C13      4.7340   -5.7374    1.0608 C.ar    1  LIG  -0.0711  -0.1435 
16    C14      4.1044   -5.4362   -0.1573 C.ar    1  LIG  -0.1312  -0.1500 
17    C15      4.0764   -6.3703   -1.1957 C.ar    1  LIG  -0.1688  -0.1500 
18    C16      4.6809   -7.6115   -1.0184 C.ar    1  LIG   0.0331   0.0825 
19    C17      5.3089   -7.9188    0.1849 C.ar    1  LIG   0.1143   0.0825 
20    C18      5.3400   -6.9916    1.2233 C.ar    1  LIG  -0.1324  -0.1500 
21    O3       5.9084   -9.1318    0.3779 O.3     1  LIG  -0.4925  -0.5325 
22    O4       4.6714   -8.5482   -2.0136 O.3     1  LIG  -0.5181  -0.5325 
23    H1       7.5999   -9.7020    5.5285 H       1  LIG   0.4370   0.4500 
24    H2       5.4656   -9.9441    7.8802 H       1  LIG   0.4278   0.4500 
25    H3       5.7896   -9.6441   -0.4419 H       1  LIG   0.4351   0.4500 
26    H4       4.1980   -8.1806   -2.7796 H       1  LIG   0.4274   0.4500 
27    H5       4.0559   -2.0815    5.1749 H       1  LIG   0.0324   0.0000 
28    H6       4.7829   -2.3647    3.5956 H       1  LIG   0.0351   0.0000 
29    H7       3.0190   -2.4314    3.7957 H       1  LIG   0.0381   0.0000 
30    H8       3.2648   -4.3506    5.3501 H       1  LIG   0.0485   0.0000 
31    H9       6.2578   -4.2167    4.5681 H       1  LIG   0.0502   0.0000 
32    H10      5.5804   -3.7966    6.1113 H       1  LIG   0.0502   0.0000 
33    H11      4.0834   -5.7044    7.2943 H       1  LIG   0.1351   0.1500 
34    H12      4.3502   -8.0046    8.1218 H       1  LIG   0.1341   0.1500 
35    H13      7.1881   -6.3855    4.3744 H       1  LIG   0.1531   0.1500 
36    H14      3.9633   -6.1524    3.6295 H       1  LIG   0.0622   0.0000 
37    H15      2.1068   -4.0255    2.4884 H       1  LIG   0.0301   0.0000 
38    H16      2.1079   -5.7650    2.1838 H       1  LIG   0.0427   0.0000 
39    H17      1.6802   -5.1622    3.7828 H       1  LIG   0.0332   0.0000 
40    H18      4.4945   -3.7383    1.7792 H       1  LIG   0.0471   0.0000 
41    H19      5.7990   -4.6431    2.5142 H       1  LIG   0.0511   0.0000 
42    H20      3.6271   -4.4701   -0.3037 H       1  LIG   0.1343   0.1500 
43    H21      3.5824   -6.1165   -2.1289 H       1  LIG   0.1331   0.1500 
44    H22      5.8348   -7.2453    2.1570 H       1  LIG   0.1590   0.1500 
@<TRIPOS>BOND
1     1     2     1
2     1     27    1
3     1     28    1
4     1     29    1
5     2     3     1
6     2     12    1
7     2     30    1
8     3     4     1
9     3     31    1
10    3     32    1
11    4     9     ar
12    4     5     ar
13    5     6     ar
14    5     33    1
15    6     7     ar
16    6     34    1
17    7     8     ar
18    7     11    1
19    8     9     ar
20    8     10    1
21    9     35    1
22    10    23    1
23    11    24    1
24    12    13    1
25    12    14    1
26    12    36    1
27    13    37    1
28    13    38    1
29    13    39    1
30    14    15    1
31    14    40    1
32    14    41    1
33    15    20    ar
34    15    16    ar
35    16    17    ar
36    16    42    1
37    17    18    ar
38    17    43    1
39    18    19    ar
40    18    22    1
41    19    20    ar
42    19    21    1
43    20    44    1
44    21    25    1
45    22    26    1
@<TRIPOS>SUBSTRUCTURE
1   LIG    1    
 
########## Number      : 776
########## Name        : ZINC00012346
########## Description : AM1BCC_CHARGES =   0.0002 ORIGINAL_CHARGES =  -0.0000

@<TRIPOS>MOLECULE
ZINC00012346
26    27    1     0     0    
SMALL
USER_CHARGES
****
****
@<TRIPOS>ATOM
1     C1       4.8408   -5.8613   -0.4570 C.2     1  LIG  -0.4275  -0.1356 
2     C2       3.7126   -5.1914   -0.2298 C.2     1  LIG   0.0811  -0.0410 
3     N1       2.4895   -5.8244   -0.1606 N.am    1  LIG  -0.3920  -0.4691 
4     C3       2.3915   -7.2128   -0.3778 C.2     1  LIG   0.8456   0.8410 
5     O1       1.3012   -7.7869   -0.3825 O.2     1  LIG  -0.6164  -0.5700 
6     N2       3.5544   -7.9283   -0.5911 N.2     1  LIG  -0.7232  -0.6610 
7     C4       4.7121   -7.3281   -0.6327 C.2     1  LIG   0.7596   0.4856 
8     N3       5.8506   -8.0642   -0.8473 N.pl3   1  LIG  -0.9174  -0.8500 
9     C5       1.2651   -5.0397    0.0586 C.3     1  LIG   0.2990   0.5801 
10    C6       0.7580   -4.4194   -1.2476 C.3     1  LIG  -0.0512   0.2300 
11    S1      -0.3806   -3.1506   -0.6694 S.3     1  LIG  -0.3319  -0.4600 
12    C7       0.3890   -3.0982    0.9604 C.3     1  LIG   0.2065   0.5100 
13    O2       1.5170   -3.9783    0.9838 O.3     1  LIG  -0.4202  -0.5600 
14    C8       0.8783   -1.6888    1.3122 C.3     1  LIG   0.1303   0.2800 
15    O3      -0.2195   -0.8101    1.5122 O.3     1  LIG  -0.5897  -0.6800 
16    H1       5.7931   -9.0688   -0.9715 H       1  LIG   0.4458   0.4000 
17    H2       6.7708   -7.6410   -0.8874 H       1  LIG   0.4326   0.4000 
18    H3       0.1489    0.0635    1.7282 H       1  LIG   0.4071   0.4000 
19    H4       5.8097   -5.3847   -0.5156 H       1  LIG   0.1555   0.1500 
20    H5       3.7275   -4.1154   -0.0966 H       1  LIG   0.1665   0.1500 
21    H6       0.4814   -5.7090    0.4531 H       1  LIG   0.1213   0.0000 
22    H7       1.5613   -3.9295   -1.8069 H       1  LIG   0.0859   0.0000 
23    H8       0.2721   -5.1524   -1.8974 H       1  LIG   0.1026   0.0000 
24    H9      -0.3175   -3.3851    1.7578 H       1  LIG   0.0974   0.0000 
25    H10      1.4653   -1.7203    2.2374 H       1  LIG   0.0804   0.0000 
26    H11      1.5342   -1.2846    0.5322 H       1  LIG   0.0525   0.0000 
@<TRIPOS>BOND
1     1     7     1
2     1     2     2
3     1     19    1
4     2     3     1
5     2     20    1
6     3     4     am
7     3     9     1
8     4     5     2
9     4     6     1
10    6     7     2
11    7     8     1
12    8     16    1
13    8     17    1
14    9     13    1
15    9     10    1
16    9     21    1
17    10    11    1
18    10    22    1
19    10    23    1
20    11    12    1
21    12    13    1
22    12    14    1
23    12    24    1
24    14    15    1
25    14    25    1
26    14    26    1
27    15    18    1
@<TRIPOS>SUBSTRUCTURE
1   LIG    1    
 
########## Number      : 777
########## Name        : ZINC00012513
########## Description : AM1BCC_CHARGES =   0.0000 ORIGINAL_CHARGES =  -0.0000

@<TRIPOS>MOLECULE
ZINC00012513
31    33    1     0     0    
SMALL
USER_CHARGES
****
****
@<TRIPOS>ATOM
1     C1       5.7717   -6.4983    0.6111 C.ar    1  LIG   0.6863   0.4700 
2     N1       5.8394   -7.4543   -0.3443 N.ar    1  LIG  -0.7996  -0.6200 
3     C2       4.8848   -7.4741   -1.3161 C.ar    1  LIG   0.7648   0.4100 
4     C3       3.8850   -6.4903   -1.2591 C.ar    1  LIG  -0.2359   0.2272 
5     C4       3.9417   -5.5724   -0.2206 C.ar    1  LIG   0.4600   0.1054 
6     N2       4.8614   -5.5161    0.7556 N.ar    1  LIG  -0.7384  -0.5670 
7     N3       2.8639   -4.7490   -0.4129 N.pl3   1  LIG  -0.2582   0.0476 
8     C5       2.2127   -5.1916   -1.5349 C.2     1  LIG   0.4003   0.0365 
9     N4       2.8024   -6.2397   -2.0691 N.2     1  LIG  -0.5467  -0.5653 
10    C6       2.4821   -3.6152    0.4199 C.3     1  LIG   0.0559   0.2556 
11    C7       1.1090   -3.8243    1.0768 C.3     1  LIG  -0.0905   0.0000 
12    C8       0.7238   -2.6351    1.9542 C.3     1  LIG  -0.0773   0.0000 
13    C9       0.7805   -1.3215    1.1794 C.3     1  LIG  -0.0816   0.0000 
14    C10      2.1441   -1.1092    0.5279 C.3     1  LIG  -0.0772   0.0000 
15    C11      2.5365   -2.2906   -0.3566 C.3     1  LIG  -0.0908   0.0000 
16    N5       4.9180   -8.4334   -2.3093 N.pl3   1  LIG  -0.9642  -0.9000 
17    H1       5.6577   -9.1214   -2.3088 H       1  LIG   0.4447   0.4000 
18    H2       4.2096   -8.4479   -3.0303 H       1  LIG   0.4539   0.4000 
19    H3       6.5562   -6.5286    1.3599 H       1  LIG   0.0500   0.1500 
20    H4       1.3190   -4.7159   -1.9160 H       1  LIG   0.0714   0.1500 
21    H5       3.2282   -3.5581    1.2240 H       1  LIG   0.0943   0.0000 
22    H6       0.3366   -3.9666    0.3103 H       1  LIG   0.0438   0.0000 
23    H7       1.1177   -4.7381    1.6836 H       1  LIG   0.0579   0.0000 
24    H8      -0.2857   -2.7841    2.3536 H       1  LIG   0.0472   0.0000 
25    H9       1.4028   -2.5814    2.8141 H       1  LIG   0.0469   0.0000 
26    H10      0.0028   -1.3208    0.4058 H       1  LIG   0.0414   0.0000 
27    H11      0.5607   -0.4864    1.8541 H       1  LIG   0.0459   0.0000 
28    H12      2.1278   -0.1910   -0.0701 H       1  LIG   0.0472   0.0000 
29    H13      2.9033   -0.9692    1.3073 H       1  LIG   0.0469   0.0000 
30    H14      3.5459   -2.1293   -0.7548 H       1  LIG   0.0578   0.0000 
31    H15      1.8624   -2.3272   -1.2220 H       1  LIG   0.0438   0.0000 
@<TRIPOS>BOND
1     1     6     ar
2     1     2     ar
3     1     19    1
4     2     3     ar
5     3     4     ar
6     3     16    1
7     4     9     1
8     4     5     ar
9     5     6     ar
10    5     7     1
11    7     8     1
12    7     10    1
13    8     9     2
14    8     20    1
15    10    15    1
16    10    11    1
17    10    21    1
18    11    12    1
19    11    22    1
20    11    23    1
21    12    13    1
22    12    24    1
23    12    25    1
24    13    14    1
25    13    26    1
26    13    27    1
27    14    15    1
28    14    28    1
29    14    29    1
30    15    30    1
31    15    31    1
32    16    17    1
33    16    18    1
@<TRIPOS>SUBSTRUCTURE
1   LIG    1    
 
########## Number      : 778
########## Name        : ZINC00012530
########## Description : AM1BCC_CHARGES =  -0.9998 ORIGINAL_CHARGES =  -1.0000

@<TRIPOS>MOLECULE
ZINC00012530
19    19    1     0     0    
SMALL
USER_CHARGES
****
****
@<TRIPOS>ATOM
1     C1       6.4888   -9.4205   -0.6734 C.3     1  LIG   0.1732   0.3691 
2     N1       5.8094   -8.5098   -1.5634 N.pl3   1  LIG  -0.7188  -0.8691 
3     C2       4.6773   -7.7909   -1.2144 C.ar    1  LIG   0.0813   0.1000 
4     C3       4.0701   -7.8727    0.0446 C.ar    1  LIG  -0.2008  -0.1500 
5     C4       2.9293   -7.1254    0.3433 C.ar    1  LIG  -0.1425  -0.1500 
6     C5       2.3719   -6.2793   -0.6137 C.ar    1  LIG  -0.1305  -0.1500 
7     C6       2.9472   -6.1674   -1.8853 C.ar    1  LIG  -0.1028  -0.1790 
8     C7       4.0968   -6.9299   -2.1649 C.ar    1  LIG  -0.1454  -0.1500 
9     C8       2.3503   -5.2535   -2.9280 C.2     1  LIG   0.9072   0.9790 
10    O1       2.9272   -5.2040   -4.0594 O.co2   1  LIG  -0.8332  -0.9000 
11    H1       6.1823   -8.3890   -2.4982 H       1  LIG   0.3763   0.4000 
12    H2       7.3501   -9.8592   -1.1870 H       1  LIG   0.0223   0.0000 
13    H3       6.8613   -8.9014    0.2155 H       1  LIG   0.0385   0.0000 
14    H4       5.8310  -10.2407   -0.3684 H       1  LIG  -0.0001   0.0000 
15    H5       4.4729   -8.5202    0.8188 H       1  LIG   0.1034   0.1500 
16    H6       2.4737   -7.2036    1.3265 H       1  LIG   0.1010   0.1500 
17    H7       1.4834   -5.7096   -0.3525 H       1  LIG   0.1494   0.1500 
18    H8       4.5575   -6.8550   -3.1494 H       1  LIG   0.1530   0.1500 
19    O2       1.3120   -4.5972   -2.6014 O.co2   1  LIG  -0.8313  -0.9000 
@<TRIPOS>BOND
1     1     2     1
2     1     12    1
3     1     13    1
4     1     14    1
5     2     3     1
6     2     11    1
7     3     8     ar
8     3     4     ar
9     4     5     ar
10    4     15    1
11    5     6     ar
12    5     16    1
13    6     7     ar
14    6     17    1
15    7     8     ar
16    7     9     1
17    8     18    1
18    9     10    2
19    9     19    1
@<TRIPOS>SUBSTRUCTURE
1   LIG    1    
 
########## Number      : 779
########## Name        : ZINC00012614
########## Description : AM1BCC_CHARGES =  -1.0001 ORIGINAL_CHARGES =  -1.0000

@<TRIPOS>MOLECULE
ZINC00012614
24    24    1     0     0    
SMALL
USER_CHARGES
****
****
@<TRIPOS>ATOM
1     C1       5.1504   -8.3907   -1.2253 C.ar    1  LIG  -0.1234  -0.1500 
2     C2       5.0575   -8.4726    0.1630 C.ar    1  LIG  -0.1483  -0.1500 
3     C3       4.2806   -7.5519    0.8678 C.ar    1  LIG  -0.0846  -0.1500 
4     C4       3.5851   -6.5486    0.1811 C.ar    1  LIG  -0.1283   0.0862 
5     C5       3.6905   -6.4612   -1.2122 C.ar    1  LIG  -0.1035  -0.1500 
6     C6       4.4705   -7.3851   -1.9111 C.ar    1  LIG  -0.1464  -0.1500 
7     C7       2.7790   -5.5814    0.9691 C.2     1  LIG   0.6478   0.5438 
8     O1       3.1237   -5.3049    2.1145 O.2     1  LIG  -0.6218  -0.5700 
9     N1       1.6598   -5.0702    0.3339 N.am    1  LIG  -0.5299  -0.7301 
10    C8       0.7826   -4.0953    0.9593 C.3     1  LIG   0.0762   0.3001 
11    C9       1.2709   -2.6765    0.7121 C.3     1  LIG  -0.2273  -0.1060 
12    C10      0.3712   -1.5842    1.2935 C.2     1  LIG   0.9141   0.9060 
13    O2      -0.6676   -1.9687    1.8969 O.co2   1  LIG  -0.8489  -0.9000 
14    H1       1.4074   -5.3864   -0.5957 H       1  LIG   0.2861   0.3700 
15    H2       5.7569   -9.1069   -1.7724 H       1  LIG   0.1219   0.1500 
16    H3       5.5912   -9.2533    0.6977 H       1  LIG   0.1258   0.1500 
17    H4       4.2197   -7.6331    1.9503 H       1  LIG   0.1589   0.1500 
18    H5       3.1944   -5.6738   -1.7721 H       1  LIG   0.1355   0.1500 
19    H6       4.5529   -7.3160   -2.9923 H       1  LIG   0.1262   0.1500 
20    H7      -0.2152   -4.2441    0.5327 H       1  LIG   0.0787   0.0000 
21    H8       0.7269   -4.3046    2.0335 H       1  LIG   0.0776   0.0000 
22    H9       2.2747   -2.5504    1.1368 H       1  LIG   0.0365   0.0000 
23    H10      1.3591   -2.5014   -0.3677 H       1  LIG   0.0179   0.0000 
24    O3       0.7896   -0.4079    1.0887 O.co2   1  LIG  -0.8409  -0.9000 
@<TRIPOS>BOND
1     1     6     ar
2     1     2     ar
3     1     15    1
4     2     3     ar
5     2     16    1
6     3     4     ar
7     3     17    1
8     4     5     ar
9     4     7     1
10    5     6     ar
11    5     18    1
12    6     19    1
13    7     8     2
14    7     9     am
15    9     10    1
16    9     14    1
17    10    11    1
18    10    20    1
19    10    21    1
20    11    12    1
21    11    22    1
22    11    23    1
23    12    13    2
24    12    24    1
@<TRIPOS>SUBSTRUCTURE
1   LIG    1    
 
########## Number      : 780
########## Name        : ZINC00012687
########## Description : AM1BCC_CHARGES =   1.0001 ORIGINAL_CHARGES =   1.0000

@<TRIPOS>MOLECULE
ZINC00012687
31    32    1     0     0    
SMALL
USER_CHARGES
****
****
@<TRIPOS>ATOM
1     C1       5.7268   -5.8600   -0.1959 C.3     1  LIG   0.1116   0.2800 
2     O1       4.3821   -5.4279   -0.0303 O.3     1  LIG  -0.3454  -0.3625 
3     C2       3.4131   -6.3967    0.0984 C.ar    1  LIG   0.1359   0.0825 
4     C3       3.6702   -7.7729    0.0151 C.ar    1  LIG  -0.1823  -0.1500 
5     C4       2.6275   -8.6940    0.1048 C.ar    1  LIG  -0.0810  -0.1500 
6     C5       1.3222   -8.2511    0.2736 C.ar    1  LIG  -0.1370  -0.1500 
7     C6       1.0565   -6.8840    0.3599 C.ar    1  LIG  -0.1312  -0.1500 
8     C7       2.0879   -5.9280    0.2837 C.ar    1  LIG   0.0578   0.1000 
9     N1       1.8152   -4.5581    0.3895 N.pl3   1  LIG  -0.6391  -0.8382 
10    C8       2.3192   -3.8851    1.5943 C.3     1  LIG   0.1676   0.3691 
11    C9       2.4621   -2.3895    1.3321 C.3     1  LIG   0.1002   0.5030 
12    C10      0.7072   -2.5352   -0.4337 C.3     1  LIG   0.0996   0.5030 
13    C11      0.5659   -4.0315   -0.1685 C.3     1  LIG   0.1710   0.3691 
14    H1       6.3580   -4.9681   -0.2559 H       1  LIG   0.0706   0.0000 
15    H2       6.0628   -6.4467    0.6654 H       1  LIG   0.0440   0.0000 
16    H3       5.8498   -6.4168   -1.1305 H       1  LIG   0.0493   0.0000 
17    H4       4.6730   -8.1627   -0.1291 H       1  LIG   0.1545   0.1500 
18    H5       2.8361   -9.7581    0.0376 H       1  LIG   0.1538   0.1500 
19    H6       0.5088   -8.9677    0.3428 H       1  LIG   0.1516   0.1500 
20    H7       0.0245   -6.5759    0.5096 H       1  LIG   0.1316   0.1500 
21    H8       1.6191   -4.0567    2.4222 H       1  LIG   0.0434   0.0000 
22    H9       3.2916   -4.2733    1.9162 H       1  LIG   0.1299   0.0000 
23    H10      2.6972   -1.8397    2.2480 H       1  LIG   0.1043   0.0000 
24    H11      3.2219   -2.1765    0.5727 H       1  LIG   0.1208   0.0000 
25    H12     -0.2476   -2.0837   -0.7182 H       1  LIG   0.1042   0.0000 
26    H13      1.4552   -2.3240   -1.2053 H       1  LIG   0.1206   0.0000 
27    H14      0.3239   -4.5254   -1.1175 H       1  LIG   0.1153   0.0000 
28    H15     -0.2629   -4.2098    0.5280 H       1  LIG   0.0405   0.0000 
29    N2       1.1634   -1.8496    0.8170 N.4     1  LIG  -0.7609  -0.9060 
30    H16      1.2619   -0.8414    0.6361 H       1  LIG   0.4533   0.4500 
31    H17      0.4396   -1.9368    1.5438 H       1  LIG   0.4456   0.4500 
@<TRIPOS>BOND
1     1     2     1
2     1     14    1
3     1     15    1
4     1     16    1
5     2     3     1
6     3     8     ar
7     3     4     ar
8     4     5     ar
9     4     17    1
10    5     6     ar
11    5     18    1
12    6     7     ar
13    6     19    1
14    7     8     ar
15    7     20    1
16    8     9     1
17    9     13    1
18    9     10    1
19    10    11    1
20    10    21    1
21    10    22    1
22    11    23    1
23    11    24    1
24    11    29    1
25    12    13    1
26    12    25    1
27    12    26    1
28    12    29    1
29    13    27    1
30    13    28    1
31    29    30    1
32    29    31    1
@<TRIPOS>SUBSTRUCTURE
1   LIG    1    
 
########## Number      : 781
########## Name        : ZINC00012791
########## Description : AM1BCC_CHARGES =   0.0000 ORIGINAL_CHARGES =   0.0000

@<TRIPOS>MOLECULE
ZINC00012791
30    32    1     0     0    
SMALL
USER_CHARGES
****
****
@<TRIPOS>ATOM
1     C1      -0.2995    3.4601    4.8770 C.3     1  LIG   0.1084   0.2800 
2     O1       0.0275    2.4654    3.9146 O.3     1  LIG  -0.2998  -0.3625 
3     C2       0.6995    2.8716    2.7891 C.ar    1  LIG   0.1134   0.0825 
4     C3       1.0841    4.1875    2.5218 C.ar    1  LIG  -0.1773  -0.1500 
5     C4       1.7710    4.5110    1.3394 C.ar    1  LIG  -0.1656   0.0000 
6     C5       2.1565    5.8364    1.0738 C.ar    1  LIG  -0.0133  -0.1500 
7     C6       2.8384    6.0953   -0.1216 C.ar    1  LIG  -0.3242   0.0000 
8     C7       3.4035    7.2081   -0.7999 C.2     1  LIG   0.5525   0.3718 
9     N1       3.9553    6.8453   -1.9662 N.2     1  LIG  -0.5821  -0.7068 
10    N2       3.7441    5.5198   -2.0293 N.pl3   1  LIG  -0.0976   0.2996 
11    C8       3.0803    5.0186   -0.9521 C.ar    1  LIG   0.4407   0.1054 
12    N3       2.7380    3.7375   -0.7525 N.ar    1  LIG  -0.6691  -0.5670 
13    C9       2.0850    3.5050    0.3976 C.ar    1  LIG   0.4489   0.3100 
14    C10      1.6933    2.2014    0.6825 C.ar    1  LIG  -0.2584  -0.1500 
15    C11      1.0075    1.8678    1.8593 C.ar    1  LIG   0.1421   0.0825 
16    O2       0.5979    0.5990    2.1899 O.3     1  LIG  -0.3006  -0.3625 
17    C12      0.8925   -0.4458    1.2712 C.3     1  LIG   0.1068   0.2800 
18    N4       3.3738    8.4624   -0.3074 N.pl3   1  LIG  -0.8494  -0.8830 
19    H1       4.0807    5.0150   -2.8394 H       1  LIG   0.2972   0.2700 
20    H2       2.9467    8.7021    0.5811 H       1  LIG   0.3927   0.4000 
21    H3       3.7858    9.2392   -0.8139 H       1  LIG   0.4025   0.4000 
22    H4      -0.8268    2.9676    5.6997 H       1  LIG   0.0719   0.0000 
23    H5       0.6034    3.9216    5.2904 H       1  LIG   0.0336   0.0000 
24    H6      -0.9733    4.2125    4.4541 H       1  LIG   0.0332   0.0000 
25    H7       0.8593    4.9865    3.2236 H       1  LIG   0.1424   0.1500 
26    H8       1.9357    6.6405    1.7697 H       1  LIG   0.1417   0.1500 
27    H9       1.9400    1.4353   -0.0491 H       1  LIG   0.1617   0.1500 
28    H10      0.4991   -1.3776    1.6887 H       1  LIG   0.0714   0.0000 
29    H11      0.3965   -0.2777    0.3096 H       1  LIG   0.0382   0.0000 
30    H12      1.9733   -0.5686    1.1460 H       1  LIG   0.0381   0.0000 
@<TRIPOS>BOND
1     1     2     1
2     1     22    1
3     1     23    1
4     1     24    1
5     2     3     1
6     3     15    ar
7     3     4     ar
8     4     5     ar
9     4     25    1
10    5     13    ar
11    5     6     ar
12    6     7     ar
13    6     26    1
14    7     11    ar
15    7     8     1
16    8     9     2
17    8     18    1
18    9     10    1
19    10    11    1
20    10    19    1
21    11    12    ar
22    12    13    ar
23    13    14    ar
24    14    15    ar
25    14    27    1
26    15    16    1
27    16    17    1
28    17    28    1
29    17    29    1
30    17    30    1
31    18    20    1
32    18    21    1
@<TRIPOS>SUBSTRUCTURE
1   LIG    1    
 
########## Number      : 782
########## Name        : ZINC00012806
########## Description : AM1BCC_CHARGES =   0.0002 ORIGINAL_CHARGES =   0.0000

@<TRIPOS>MOLECULE
ZINC00012806
29    31    1     0     0    
SMALL
USER_CHARGES
****
****
@<TRIPOS>ATOM
1     C1       4.5766   -9.6045    0.2950 C.ar    1  LIG  -0.1243  -0.1500 
2     C2       4.1220   -8.7202   -0.6813 C.ar    1  LIG  -0.1269  -0.1500 
3     C3       3.7452   -7.4221   -0.3302 C.ar    1  LIG  -0.1160  -0.1500 
4     C4       3.8215   -6.9966    1.0040 C.ar    1  LIG  -0.0084   0.0530 
5     C5       4.2784   -7.8959    1.9784 C.ar    1  LIG  -0.1314  -0.1500 
6     C6       4.6546   -9.1930    1.6239 C.ar    1  LIG  -0.1267  -0.1500 
7     C7       3.4221   -5.6426    1.3858 C.2     1  LIG  -0.2555  -0.0130 
8     C8       2.4522   -5.1932    2.2647 C.2     1  LIG   0.5804   0.2892 
9     N1       2.3675   -3.8236    2.4091 N.2     1  LIG  -0.6230  -0.5653 
10    C9       3.2640   -3.2185    1.6551 C.2     1  LIG   0.4655   0.3251 
11    S1       4.2415   -4.2875    0.7215 S.3     1  LIG  -0.0547  -0.0800 
12    C10      3.4153   -1.7536    1.5769 C.ar    1  LIG  -0.1396   0.0530 
13    C11      2.3667   -0.9356    2.0335 C.ar    1  LIG  -0.0804  -0.1500 
14    C12      2.4633    0.4578    1.9851 C.ar    1  LIG  -0.1363  -0.1500 
15    C13      3.6125    1.0598    1.4827 C.ar    1  LIG  -0.1145  -0.1500 
16    C14      4.6649    0.2685    1.0315 C.ar    1  LIG  -0.1313  -0.1500 
17    C15      4.5691   -1.1262    1.0791 C.ar    1  LIG  -0.1197  -0.1500 
18    O1       1.6254   -6.0250    2.9345 O.3     1  LIG  -0.5753  -0.5120 
19    H1       1.7798   -6.9506    2.6810 H       1  LIG   0.4337   0.4500 
20    H2       4.8696  -10.6137    0.0202 H       1  LIG   0.1350   0.1500 
21    H3       4.0589   -9.0413   -1.7172 H       1  LIG   0.1355   0.1500 
22    H4       3.3858   -6.7526   -1.1085 H       1  LIG   0.1389   0.1500 
23    H5       4.3526   -7.5940    3.0209 H       1  LIG   0.1396   0.1500 
24    H6       5.0100   -9.8817    2.3853 H       1  LIG   0.1358   0.1500 
25    H7       1.4538   -1.3751    2.4311 H       1  LIG   0.1576   0.1500 
26    H8       1.6397    1.0704    2.3408 H       1  LIG   0.1374   0.1500 
27    H9       3.6893    2.1424    1.4452 H       1  LIG   0.1348   0.1500 
28    H10      5.5660    0.7354    0.6432 H       1  LIG   0.1357   0.1500 
29    H11      5.4219   -1.7009    0.7269 H       1  LIG   0.1343   0.1500 
@<TRIPOS>BOND
1     1     6     ar
2     1     2     ar
3     1     20    1
4     2     3     ar
5     2     21    1
6     3     4     ar
7     3     22    1
8     4     5     ar
9     4     7     1
10    5     6     ar
11    5     23    1
12    6     24    1
13    7     11    1
14    7     8     2
15    8     9     1
16    8     18    1
17    9     10    2
18    10    11    1
19    10    12    1
20    12    17    ar
21    12    13    ar
22    13    14    ar
23    13    25    1
24    14    15    ar
25    14    26    1
26    15    16    ar
27    15    27    1
28    16    17    ar
29    16    28    1
30    17    29    1
31    18    19    1
@<TRIPOS>SUBSTRUCTURE
1   LIG    1    
 
########## Number      : 783
########## Name        : ZINC00013086
########## Description : AM1BCC_CHARGES =   0.9999 ORIGINAL_CHARGES =   1.0000

@<TRIPOS>MOLECULE
ZINC00013086
24    24    1     0     0    
SMALL
USER_CHARGES
****
****
@<TRIPOS>ATOM
1     C1       4.7749   -7.9182    0.6388 C.2     1  LIG  -0.1831  -0.3016 
2     C2       3.5230   -7.4441    0.3116 C.2     1  LIG   0.2115   0.0462 
3     N1       2.6010   -8.4692    0.3230 N.2     1  LIG  -0.7224  -0.5653 
4     C3       3.2788   -9.5501    0.6448 C.2     1  LIG   0.6220   0.2705 
5     N2       4.6033   -9.2580    0.8448 N.pl3   1  LIG  -0.3180   0.0332 
6     N3       2.8520  -10.8131    0.7897 N.pl3   1  LIG  -0.8881  -0.8840 
7     C4       3.0984   -6.0445   -0.0165 C.3     1  LIG   0.1623   0.4610 
8     C5       2.5767   -5.9180   -1.4653 C.3     1  LIG  -0.0178   0.2900 
9     C6       2.0328   -4.4982   -1.7169 C.3     1  LIG   0.0885   0.5030 
10    Cl1      3.8782   -6.2854   -2.6207 Cl      1  LIG  -0.1445  -0.2900 
11    O1       2.0662   -5.6410    0.8780 O.3     1  LIG  -0.6180  -0.6800 
12    H1       5.3219   -9.9204    1.1015 H       1  LIG   0.3223   0.2700 
13    H2       3.4634  -11.5819    1.0442 H       1  LIG   0.4001   0.4000 
14    H3       1.8768  -11.0559    0.6490 H       1  LIG   0.4183   0.4000 
15    H4       1.1412   -3.4427   -3.2877 H       1  LIG   0.4639   0.4500 
16    H5       2.2058   -4.6071   -3.8002 H       1  LIG   0.4673   0.4500 
17    H6       1.4066   -6.3568    0.9126 H       1  LIG   0.4483   0.4000 
18    H7       5.7391   -7.4408    0.7393 H       1  LIG   0.1933   0.1500 
19    H8       3.9780   -5.3922    0.1151 H       1  LIG   0.0863   0.0000 
20    H9       1.7101   -6.5907   -1.6076 H       1  LIG   0.1183   0.0000 
21    H10      1.2063   -4.2469   -1.0459 H       1  LIG   0.1455   0.0000 
22    H11      2.8137   -3.7360   -1.6271 H       1  LIG   0.1238   0.0000 
23    N4       1.4863   -4.3927   -3.0960 N.4     1  LIG  -0.8393  -0.8530 
24    H12      0.7018   -5.0411   -3.2464 H       1  LIG   0.4594   0.4500 
@<TRIPOS>BOND
1     1     5     1
2     1     2     2
3     1     18    1
4     2     3     1
5     2     7     1
6     3     4     2
7     4     5     1
8     4     6     1
9     5     12    1
10    6     13    1
11    6     14    1
12    7     8     1
13    7     11    1
14    7     19    1
15    8     9     1
16    8     10    1
17    8     20    1
18    9     21    1
19    9     22    1
20    9     23    1
21    11    17    1
22    15    23    1
23    16    23    1
24    23    24    1
@<TRIPOS>SUBSTRUCTURE
1   LIG    1    
 
########## Number      : 784
########## Name        : ZINC00013245
########## Description : AM1BCC_CHARGES =  -0.0002 ORIGINAL_CHARGES =   0.0000

@<TRIPOS>MOLECULE
ZINC00013245
16    16    1     0     0    
SMALL
USER_CHARGES
****
****
@<TRIPOS>ATOM
1     C1       3.6770   -7.9091   -0.3203 C.ar    1  LIG  -0.0871  -0.1500 
2     C2       2.8885   -7.9702   -1.4712 C.ar    1  LIG  -0.1867  -0.1500 
3     C3       3.2080   -8.8814   -2.4762 C.ar    1  LIG   0.0697   0.0825 
4     C4       4.3069   -9.7273   -2.3361 C.ar    1  LIG   0.0959   0.0825 
5     C5       5.1002   -9.6754   -1.1935 C.ar    1  LIG  -0.0731  -0.1500 
6     C6       4.7785   -8.7614   -0.1868 C.ar    1  LIG  -0.1948   0.0862 
7     C7       5.5952   -8.6777    1.0373 C.2     1  LIG   0.5778   0.4238 
8     O1       6.5723   -9.3913    1.2226 O.2     1  LIG  -0.5239  -0.5700 
9     O2       4.6324  -10.6258   -3.3133 O.3     1  LIG  -0.4889  -0.5325 
10    O3       2.4559   -8.9655   -3.6145 O.3     1  LIG  -0.5114  -0.5325 
11    H1       3.9781  -10.5236   -4.0277 H       1  LIG   0.4376   0.4500 
12    H2       1.7343   -8.3156   -3.5581 H       1  LIG   0.4334   0.4500 
13    H3       3.4225   -7.1963    0.4597 H       1  LIG   0.1383   0.1500 
14    H4       2.0345   -7.3062   -1.5698 H       1  LIG   0.1399   0.1500 
15    H5       5.9539  -10.3403   -1.0966 H       1  LIG   0.1755   0.1500 
16    H6       5.2819   -7.9332    1.7886 H       1  LIG  -0.0024   0.0600 
@<TRIPOS>BOND
1     1     6     ar
2     1     2     ar
3     1     13    1
4     2     3     ar
5     2     14    1
6     3     4     ar
7     3     10    1
8     4     5     ar
9     4     9     1
10    5     6     ar
11    5     15    1
12    6     7     1
13    7     8     2
14    7     16    1
15    9     11    1
16    10    12    1
@<TRIPOS>SUBSTRUCTURE
1   LIG    1    
 
########## Number      : 785
########## Name        : ZINC00013246
########## Description : AM1BCC_CHARGES =  -1.0001 ORIGINAL_CHARGES =  -1.0000

@<TRIPOS>MOLECULE
ZINC00013246
16    16    1     0     0    
SMALL
USER_CHARGES
****
****
@<TRIPOS>ATOM
1     C1       4.9132   -6.7571   -2.1424 C.ar    1  LIG  -0.1055  -0.1500 
2     C2       4.4008   -5.5441   -2.6107 C.ar    1  LIG  -0.1619  -0.1500 
3     C3       3.1412   -5.1273   -2.1993 C.ar    1  LIG   0.0727   0.0825 
4     C4       2.3935   -5.9110   -1.3270 C.ar    1  LIG   0.0046   0.0825 
5     C5       2.9005   -7.1230   -0.8565 C.ar    1  LIG  -0.1442  -0.1500 
6     C6       4.1728   -7.5640   -1.2598 C.ar    1  LIG  -0.1230  -0.1790 
7     C7       4.7313   -8.8735   -0.7570 C.2     1  LIG   0.9103   0.9790 
8     O1       5.8877   -9.2082   -1.1639 O.co2   1  LIG  -0.8274  -0.9000 
9     O2       1.1575   -5.4701   -0.9428 O.3     1  LIG  -0.5441  -0.5325 
10    O3       2.6603   -3.9381   -2.6698 O.3     1  LIG  -0.5209  -0.5325 
11    H1       0.7713   -6.1273   -0.3385 H       1  LIG   0.4185   0.4500 
12    H2       1.7767   -3.8130   -2.2793 H       1  LIG   0.4184   0.4500 
13    H3       5.9014   -7.0656   -2.4764 H       1  LIG   0.1552   0.1500 
14    H4       4.9889   -4.9359   -3.2918 H       1  LIG   0.1258   0.1500 
15    H5       2.3050   -7.7255   -0.1749 H       1  LIG   0.1559   0.1500 
16    O4       4.0052   -9.5488    0.0379 O.co2   1  LIG  -0.8345  -0.9000 
@<TRIPOS>BOND
1     1     6     ar
2     1     2     ar
3     1     13    1
4     2     3     ar
5     2     14    1
6     3     4     ar
7     3     10    1
8     4     5     ar
9     4     9     1
10    5     6     ar
11    5     15    1
12    6     7     1
13    7     8     2
14    7     16    1
15    9     11    1
16    10    12    1
@<TRIPOS>SUBSTRUCTURE
1   LIG    1    
 
########## Number      : 786
########## Name        : ZINC00013352
########## Description : AM1BCC_CHARGES =  -0.0001 ORIGINAL_CHARGES =   0.0000

@<TRIPOS>MOLECULE
ZINC00013352
16    16    1     0     0    
SMALL
USER_CHARGES
****
****
@<TRIPOS>ATOM
1     C1      -3.1030   -7.6951   -1.0599 C.3     1  LIG  -0.0650   0.1382 
2     C2      -1.9557   -7.0151   -1.7468 C.2     1  LIG   0.0531  -0.0292 
3     C3      -1.1474   -7.6200   -2.6323 C.2     1  LIG  -0.0752   0.0911 
4     C4      -0.0376   -6.8460   -3.2536 C.2     1  LIG   0.6960   0.6156 
5     O1       0.7170   -7.3731   -4.0665 O.2     1  LIG  -0.6221  -0.5700 
6     N1       0.0638   -5.5291   -2.8486 N.am    1  LIG  -0.5717  -0.4900 
7     C5      -0.7667   -4.8957   -1.9343 C.2     1  LIG   0.8054   0.6900 
8     O2      -0.6221   -3.7160   -1.6155 O.2     1  LIG  -0.6367  -0.5700 
9     N2      -1.7672   -5.6931   -1.4112 N.am    1  LIG  -0.4654  -0.5390 
10    O3      -1.2989   -8.9405   -2.9976 O.3     1  LIG  -0.4862  -0.5267 
11    H1       0.8103   -4.9748   -3.2541 H       1  LIG   0.3595   0.3700 
12    H2      -2.4006   -5.2733   -0.7373 H       1  LIG   0.3565   0.3700 
13    H3      -0.5977   -9.1382   -3.6447 H       1  LIG   0.4471   0.4500 
14    H4      -3.2125   -8.7424   -1.3583 H       1  LIG   0.0877   0.0000 
15    H5      -2.9620   -7.6747    0.0262 H       1  LIG   0.0588   0.0000 
16    H6      -4.0433   -7.1850   -1.2953 H       1  LIG   0.0581   0.0000 
@<TRIPOS>BOND
1     1     2     1
2     1     14    1
3     1     15    1
4     1     16    1
5     2     9     1
6     2     3     2
7     3     4     1
8     3     10    1
9     4     5     2
10    4     6     am
11    6     7     am
12    6     11    1
13    7     8     2
14    7     9     am
15    9     12    1
16    10    13    1
@<TRIPOS>SUBSTRUCTURE
1   LIG    1    
 
########## Number      : 787
########## Name        : ZINC00013518
########## Description : AM1BCC_CHARGES =   1.0000 ORIGINAL_CHARGES =   1.0000

@<TRIPOS>MOLECULE
ZINC00013518
25    25    1     0     0    
SMALL
USER_CHARGES
****
****
@<TRIPOS>ATOM
1     C1       5.4909   -9.2816   -0.1610 C.3     1  LIG  -0.2005   0.0610 
2     C2       4.5977   -8.3979   -0.9942 C.2     1  LIG   0.5862   0.4480 
3     O1       4.9421   -7.2514   -1.2760 O.2     1  LIG  -0.5372  -0.5700 
4     C3       3.3112   -9.0318   -1.4807 C.3     1  LIG  -0.1848   0.2910 
5     S1       2.0930   -7.8158   -2.0341 S.3     1  LIG  -0.0363  -0.3220 
6     C4       1.8701   -6.8617   -0.5627 C.cat   1  LIG   0.0243   0.8920 
7     N1       1.3597   -7.2956    0.6045 N.pl3   1  LIG   0.0047  -0.7640 
8     C5       1.4084   -6.2473    1.5085 C.2     1  LIG  -0.1159   0.2000 
9     C6       1.9015   -5.1595    0.8471 C.2     1  LIG  -0.1130   0.2000 
10    N2       2.1559   -5.5512   -0.4543 N.pl3   1  LIG   0.0408  -0.7640 
11    C7       2.6511   -4.6744   -1.5091 C.3     1  LIG  -0.0101   0.5140 
12    C8       0.8200   -8.6144    0.9104 C.3     1  LIG  -0.0121   0.5140 
13    H1       6.3877   -8.7290    0.1326 H       1  LIG   0.0962   0.0000 
14    H2       4.9590   -9.5928    0.7415 H       1  LIG   0.0816   0.0000 
15    H3       5.7883  -10.1559   -0.7452 H       1  LIG   0.0784   0.0000 
16    H4       3.5553   -9.6915   -2.3187 H       1  LIG   0.1426   0.0000 
17    H5       2.8823   -9.6393   -0.6812 H       1  LIG   0.1016   0.0000 
18    H6       1.0654   -6.4235    2.5109 H       1  LIG   0.2295   0.1500 
19    H7       2.1016   -4.1412    1.1231 H       1  LIG   0.2315   0.1500 
20    H8       2.7229   -3.6462   -1.1431 H       1  LIG   0.0962   0.0000 
21    H9       3.6415   -5.0076   -1.8263 H       1  LIG   0.1175   0.0000 
22    H10      1.9571   -4.6994   -2.3534 H       1  LIG   0.0927   0.0000 
23    H11      1.6303   -9.2560    1.2651 H       1  LIG   0.0844   0.0000 
24    H12      0.0599   -8.5293    1.6927 H       1  LIG   0.1016   0.0000 
25    H13      0.3527   -9.0491    0.0241 H       1  LIG   0.1001   0.0000 
@<TRIPOS>BOND
1     1     2     1
2     1     13    1
3     1     14    1
4     1     15    1
5     2     3     2
6     2     4     1
7     4     5     1
8     4     16    1
9     4     17    1
10    5     6     1
11    6     10    2
12    6     7     1
13    7     8     1
14    7     12    1
15    8     9     2
16    8     18    1
17    9     10    1
18    9     19    1
19    10    11    1
20    11    20    1
21    11    21    1
22    11    22    1
23    12    23    1
24    12    24    1
25    12    25    1
@<TRIPOS>SUBSTRUCTURE
1   LIG    1    
 
########## Number      : 788
########## Name        : ZINC00013539
########## Description : AM1BCC_CHARGES =  -0.0000 ORIGINAL_CHARGES =   0.0000

@<TRIPOS>MOLECULE
ZINC00013539
22    22    1     0     0    
SMALL
USER_CHARGES
****
****
@<TRIPOS>ATOM
1     C1       5.5025  -10.1568   -0.8962 C.3     1  LIG   0.0853   0.3001 
2     N1       4.3763   -9.5300   -0.2210 N.am    1  LIG  -0.4596  -0.6602 
3     C2       3.9165  -10.1805    1.0007 C.3     1  LIG   0.0885   0.3001 
4     C3       3.7999   -8.3719   -0.7497 C.2     1  LIG   0.7458   0.7800 
5     O1       4.1830   -7.8195   -1.7799 O.2     1  LIG  -0.5674  -0.5700 
6     O2       2.7329   -7.9066    0.0231 O.3     1  LIG  -0.3673  -0.2325 
7     C4       2.1400   -6.7465   -0.4681 C.ar    1  LIG   0.0004   0.0825 
8     C5       0.9923   -6.8316   -1.2461 C.ar    1  LIG  -0.0873  -0.1500 
9     C6       0.4001   -5.6560   -1.6914 C.ar    1  LIG  -0.2377  -0.1500 
10    C7       0.9824   -4.4506   -1.3235 C.ar    1  LIG   0.3937   0.1600 
11    N2       2.0909   -4.3428   -0.5535 N.ar    1  LIG  -0.6551  -0.6200 
12    C8       2.6470   -5.5008   -0.1357 C.ar    1  LIG   0.4056   0.1600 
13    H1       5.7877   -9.6130   -1.8002 H       1  LIG   0.0806   0.0000 
14    H2       6.3552  -10.1797   -0.2115 H       1  LIG   0.0380   0.0000 
15    H3       5.2247  -11.1790   -1.1693 H       1  LIG   0.0342   0.0000 
16    H4       3.0716   -9.6640    1.4597 H       1  LIG   0.0738   0.0000 
17    H5       3.6145  -11.2037    0.7585 H       1  LIG   0.0331   0.0000 
18    H6       4.7445  -10.2053    1.7153 H       1  LIG   0.0372   0.0000 
19    H7       0.5644   -7.7946   -1.5055 H       1  LIG   0.1515   0.1500 
20    H8      -0.4925   -5.6787   -2.3062 H       1  LIG   0.1467   0.1500 
21    H9       0.5548   -3.5071   -1.6479 H       1  LIG   0.0251   0.1500 
22    H10      3.5291   -5.3945    0.4864 H       1  LIG   0.0349   0.1500 
@<TRIPOS>BOND
1     1     2     1
2     1     13    1
3     1     14    1
4     1     15    1
5     2     3     1
6     2     4     am
7     3     16    1
8     3     17    1
9     3     18    1
10    4     5     2
11    4     6     1
12    6     7     1
13    7     12    ar
14    7     8     ar
15    8     9     ar
16    8     19    1
17    9     10    ar
18    9     20    1
19    10    11    ar
20    10    21    1
21    11    12    ar
22    12    22    1
@<TRIPOS>SUBSTRUCTURE
1   LIG    1    
 
########## Number      : 789
########## Name        : ZINC00013560
########## Description : AM1BCC_CHARGES =  -0.0001 ORIGINAL_CHARGES =   0.0000

@<TRIPOS>MOLECULE
ZINC00013560
30    31    1     0     0    
SMALL
USER_CHARGES
****
****
@<TRIPOS>ATOM
1     C1       2.5199   -0.3695    1.4972 C.3     1  LIG  -0.0621   0.1435 
2     C2       2.2247   -1.7668    1.0414 C.ar    1  LIG  -0.0363  -0.1435 
3     C3       1.9888   -2.0362   -0.3116 C.ar    1  LIG  -0.1512  -0.1500 
4     C4       1.6827   -3.3318   -0.7346 C.ar    1  LIG  -0.0408  -0.1500 
5     C5       1.6044   -4.3746    0.1937 C.ar    1  LIG  -0.1325   0.0640 
6     C6       1.8167   -4.1052    1.5497 C.ar    1  LIG  -0.0548  -0.1500 
7     C7       2.1225   -2.8088    1.9699 C.ar    1  LIG  -0.1524  -0.1500 
8     S1       1.2009   -6.0626   -0.3160 S.o     1  LIG   0.3757   0.3720 
9     O1       0.6147   -5.9428   -1.6922 O.2     1  LIG  -0.5162  -0.5000 
10    C8       2.9322   -6.5268   -0.5592 C.ar    1  LIG  -0.1317   0.0640 
11    C9       3.6475   -7.0728    0.5115 C.ar    1  LIG  -0.0554  -0.1500 
12    C10      4.9833   -7.4462    0.3475 C.ar    1  LIG  -0.1522  -0.1500 
13    C11      5.6226   -7.2746   -0.8856 C.ar    1  LIG  -0.0359  -0.1435 
14    C12      4.8964   -6.7493   -1.9605 C.ar    1  LIG  -0.1510  -0.1500 
15    C13      3.5602   -6.3752   -1.7994 C.ar    1  LIG  -0.0405  -0.1500 
16    C14      7.0462   -7.7065   -1.0697 C.3     1  LIG  -0.0621   0.1435 
17    H1       3.0566    0.1890    0.7230 H       1  LIG   0.0481   0.0000 
18    H2       1.5871    0.1537    1.7286 H       1  LIG   0.0517   0.0000 
19    H3       3.1535   -0.3755    2.3904 H       1  LIG   0.0455   0.0000 
20    H4       2.0420   -1.2375   -1.0476 H       1  LIG   0.1362   0.1500 
21    H5       1.5100   -3.5106   -1.7927 H       1  LIG   0.1606   0.1500 
22    H6       1.7448   -4.8960    2.2923 H       1  LIG   0.1243   0.1500 
23    H7       2.2800   -2.6179    3.0287 H       1  LIG   0.1337   0.1500 
24    H8       3.1762   -7.2161    1.4806 H       1  LIG   0.1245   0.1500 
25    H9       5.5219   -7.8730    1.1902 H       1  LIG   0.1336   0.1500 
26    H10      5.3669   -6.6271   -2.9332 H       1  LIG   0.1363   0.1500 
27    H11      3.0243   -5.9653   -2.6515 H       1  LIG   0.1595   0.1500 
28    H12      7.6106   -7.6003   -0.1372 H       1  LIG   0.0450   0.0000 
29    H13      7.0818   -8.7531   -1.3875 H       1  LIG   0.0518   0.0000 
30    H14      7.5472   -7.0903   -1.8236 H       1  LIG   0.0485   0.0000 
@<TRIPOS>BOND
1     1     2     1
2     1     17    1
3     1     18    1
4     1     19    1
5     2     7     ar
6     2     3     ar
7     3     4     ar
8     3     20    1
9     4     5     ar
10    4     21    1
11    5     6     ar
12    5     8     1
13    6     7     ar
14    6     22    1
15    7     23    1
16    8     9     2
17    8     10    1
18    10    15    ar
19    10    11    ar
20    11    12    ar
21    11    24    1
22    12    13    ar
23    12    25    1
24    13    14    ar
25    13    16    1
26    14    15    ar
27    14    26    1
28    15    27    1
29    16    28    1
30    16    29    1
31    16    30    1
@<TRIPOS>SUBSTRUCTURE
1   LIG    1    
 
########## Number      : 790
########## Name        : ZINC00013562
########## Description : AM1BCC_CHARGES =   0.0000 ORIGINAL_CHARGES =   0.0000

@<TRIPOS>MOLECULE
ZINC00013562
30    31    1     0     0    
SMALL
USER_CHARGES
****
****
@<TRIPOS>ATOM
1     C1       1.9722    0.2404   -0.5177 C.ar    1  LIG  -0.1273  -0.1500 
2     C2       2.9087   -0.1271    0.4467 C.ar    1  LIG  -0.1253  -0.1500 
3     C3       2.9775   -1.4499    0.8865 C.ar    1  LIG  -0.1177  -0.1500 
4     C4       2.1059   -2.4177    0.3680 C.ar    1  LIG  -0.0740  -0.1435 
5     C5       1.1726   -2.0385   -0.6069 C.ar    1  LIG  -0.1284  -0.1500 
6     C6       1.1053   -0.7148   -1.0451 C.ar    1  LIG  -0.1294  -0.1500 
7     C7       2.1914   -3.8466    0.8277 C.3     1  LIG  -0.0395   0.3370 
8     S1       3.3310   -4.8159   -0.2134 S.o     1  LIG   0.2665   0.1130 
9     O1       4.7267   -4.3583    0.0964 O.2     1  LIG  -0.4971  -0.5000 
10    C8       3.0645   -6.3948    0.6573 C.3     1  LIG  -0.0405   0.3370 
11    C9       3.8510   -7.5106    0.0275 C.ar    1  LIG  -0.0731  -0.1435 
12    C10      3.3049   -8.2614   -1.0230 C.ar    1  LIG  -0.1285  -0.1500 
13    C11      4.0423   -9.2863   -1.6182 C.ar    1  LIG  -0.1295  -0.1500 
14    C12      5.3328   -9.5673   -1.1734 C.ar    1  LIG  -0.1278  -0.1500 
15    C13      5.8882   -8.8225   -0.1347 C.ar    1  LIG  -0.1254  -0.1500 
16    C14      5.1525   -7.7975    0.4621 C.ar    1  LIG  -0.1175  -0.1500 
17    H1       1.9201    1.2698   -0.8601 H       1  LIG   0.1323   0.1500 
18    H2       3.5879    0.6159    0.8549 H       1  LIG   0.1353   0.1500 
19    H3       3.7185   -1.7224    1.6342 H       1  LIG   0.1524   0.1500 
20    H4       0.4920   -2.7721   -1.0319 H       1  LIG   0.1272   0.1500 
21    H5       0.3777   -0.4297   -1.7995 H       1  LIG   0.1318   0.1500 
22    H6       2.5345   -3.8967    1.8670 H       1  LIG   0.0969   0.0000 
23    H7       1.2013   -4.3137    0.7852 H       1  LIG   0.0812   0.0000 
24    H8       3.3477   -6.2698    1.7083 H       1  LIG   0.0971   0.0000 
25    H9       1.9946   -6.6289    0.6304 H       1  LIG   0.0815   0.0000 
26    H10      2.3012   -8.0522   -1.3849 H       1  LIG   0.1273   0.1500 
27    H11      3.6104   -9.8641   -2.4303 H       1  LIG   0.1316   0.1500 
28    H12      5.9064  -10.3641   -1.6379 H       1  LIG   0.1323   0.1500 
29    H13      6.8958   -9.0379    0.2095 H       1  LIG   0.1353   0.1500 
30    H14      5.6025   -7.2207    1.2666 H       1  LIG   0.1523   0.1500 
@<TRIPOS>BOND
1     1     6     ar
2     1     2     ar
3     1     17    1
4     2     3     ar
5     2     18    1
6     3     4     ar
7     3     19    1
8     4     5     ar
9     4     7     1
10    5     6     ar
11    5     20    1
12    6     21    1
13    7     8     1
14    7     22    1
15    7     23    1
16    8     9     2
17    8     10    1
18    10    11    1
19    10    24    1
20    10    25    1
21    11    16    ar
22    11    12    ar
23    12    13    ar
24    12    26    1
25    13    14    ar
26    13    27    1
27    14    15    ar
28    14    28    1
29    15    16    ar
30    15    29    1
31    16    30    1
@<TRIPOS>SUBSTRUCTURE
1   LIG    1    
 
########## Number      : 791
########## Name        : ZINC00013563
########## Description : AM1BCC_CHARGES =  -0.0001 ORIGINAL_CHARGES =   0.0000

@<TRIPOS>MOLECULE
ZINC00013563
24    25    1     0     0    
SMALL
USER_CHARGES
****
****
@<TRIPOS>ATOM
1     C1       1.4724   -3.9544   -0.8727 C.ar    1  LIG  -0.0906  -0.1500 
2     C2       1.2054   -4.1280    0.4842 C.ar    1  LIG  -0.1508  -0.1500 
3     C3       2.0665   -4.8906    1.2747 C.ar    1  LIG  -0.0583  -0.1500 
4     C4       3.2042   -5.4791    0.7100 C.ar    1  LIG  -0.1280   0.0640 
5     C5       3.4631   -5.3087   -0.6549 C.ar    1  LIG  -0.0462  -0.1500 
6     C6       2.5994   -4.5451   -1.4418 C.ar    1  LIG  -0.1482  -0.1500 
7     S1       4.2950   -6.4700    1.7593 S.o     1  LIG   0.3754   0.3720 
8     O1       5.1256   -7.2935    0.8192 O.2     1  LIG  -0.5153  -0.5000 
9     C7       5.3289   -5.0582    2.2184 C.ar    1  LIG  -0.1277   0.0640 
10    C8       4.9949   -4.3104    3.3538 C.ar    1  LIG  -0.0593  -0.1500 
11    C9       5.7812   -3.2215    3.7329 C.ar    1  LIG  -0.1508  -0.1500 
12    C10      6.9060   -2.8779    2.9850 C.ar    1  LIG  -0.0903  -0.1500 
13    C11      7.2479   -3.6242    1.8584 C.ar    1  LIG  -0.1483  -0.1500 
14    C12      6.4643   -4.7141    1.4758 C.ar    1  LIG  -0.0445  -0.1500 
15    H1       0.8014   -3.3609   -1.4870 H       1  LIG   0.1328   0.1500 
16    H2       0.3251   -3.6704    0.9268 H       1  LIG   0.1340   0.1500 
17    H3       1.8390   -5.0182    2.3301 H       1  LIG   0.1250   0.1500 
18    H4       4.3356   -5.7603   -1.1196 H       1  LIG   0.1628   0.1500 
19    H5       2.8058   -4.4118   -2.5001 H       1  LIG   0.1372   0.1500 
20    H6       4.1239   -4.5655    3.9523 H       1  LIG   0.1250   0.1500 
21    H7       5.5170   -2.6418    4.6129 H       1  LIG   0.1340   0.1500 
22    H8       7.5174   -2.0303    3.2812 H       1  LIG   0.1329   0.1500 
23    H9       8.1262   -3.3578    1.2772 H       1  LIG   0.1372   0.1500 
24    H10      6.7496   -5.2821    0.5943 H       1  LIG   0.1619   0.1500 
@<TRIPOS>BOND
1     1     6     ar
2     1     2     ar
3     1     15    1
4     2     3     ar
5     2     16    1
6     3     4     ar
7     3     17    1
8     4     5     ar
9     4     7     1
10    5     6     ar
11    5     18    1
12    6     19    1
13    7     8     2
14    7     9     1
15    9     14    ar
16    9     10    ar
17    10    11    ar
18    10    20    1
19    11    12    ar
20    11    21    1
21    12    13    ar
22    12    22    1
23    13    14    ar
24    13    23    1
25    14    24    1
@<TRIPOS>SUBSTRUCTURE
1   LIG    1    
 
########## Number      : 792
########## Name        : ZINC00013564
########## Description : AM1BCC_CHARGES =   0.0000 ORIGINAL_CHARGES =   0.0000

@<TRIPOS>MOLECULE
ZINC00013564
17    17    1     0     0    
SMALL
USER_CHARGES
****
****
@<TRIPOS>ATOM
1     C1       4.0917  -10.1167   -3.1965 C.3     1  LIG  -0.1267   0.1935 
2     S1       2.9302  -10.1312   -1.8072 S.o     1  LIG   0.3247   0.2425 
3     O1       2.8801  -11.5300   -1.2702 O.2     1  LIG  -0.5121  -0.5000 
4     C2       3.9414   -9.1744   -0.6582 C.ar    1  LIG  -0.1344   0.0640 
5     C3       4.0107   -7.7841   -0.8041 C.ar    1  LIG  -0.0645  -0.1500 
6     C4       4.7805   -7.0235    0.0774 C.ar    1  LIG  -0.1495  -0.1500 
7     C5       5.4805   -7.6460    1.1093 C.ar    1  LIG  -0.0910  -0.1500 
8     C6       5.4102   -9.0298    1.2620 C.ar    1  LIG  -0.1470  -0.1500 
9     C7       4.6412   -9.7940    0.3824 C.ar    1  LIG  -0.0468  -0.1500 
10    H1       3.6815  -10.7389   -3.9957 H       1  LIG   0.0846   0.0000 
11    H2       4.2144   -9.0957   -3.5654 H       1  LIG   0.0751   0.0000 
12    H3       5.0566  -10.5229   -2.8830 H       1  LIG   0.0906   0.0000 
13    H4       3.4686   -7.2804   -1.6005 H       1  LIG   0.1266   0.1500 
14    H5       4.8329   -5.9448   -0.0401 H       1  LIG   0.1346   0.1500 
15    H6       6.0790   -7.0533    1.7952 H       1  LIG   0.1338   0.1500 
16    H7       5.9542   -9.5149    2.0676 H       1  LIG   0.1381   0.1500 
17    H8       4.6012  -10.8711    0.5211 H       1  LIG   0.1639   0.1500 
@<TRIPOS>BOND
1     1     2     1
2     1     10    1
3     1     11    1
4     1     12    1
5     2     3     2
6     2     4     1
7     4     9     ar
8     4     5     ar
9     5     6     ar
10    5     13    1
11    6     7     ar
12    6     14    1
13    7     8     ar
14    7     15    1
15    8     9     ar
16    8     16    1
17    9     17    1
@<TRIPOS>SUBSTRUCTURE
1   LIG    1    
 
########## Number      : 793
########## Name        : ZINC00013613
########## Description : AM1BCC_CHARGES =   0.0002 ORIGINAL_CHARGES =   0.0000

@<TRIPOS>MOLECULE
ZINC00013613
14    14    1     0     0    
SMALL
USER_CHARGES
****
****
@<TRIPOS>ATOM
1     C1       4.8624   -8.6150   -0.9559 C.ar    1  LIG  -0.1686  -0.1500 
2     C2       3.6143   -9.0979   -0.5592 C.ar    1  LIG  -0.1263  -0.1500 
3     C3       3.1197   -8.7630    0.6957 C.ar    1  LIG   0.0785   0.1900 
4     C4       3.8495   -7.9535    1.5580 C.ar    1  LIG  -0.1263  -0.1500 
5     C5       5.0972   -7.4731    1.1566 C.ar    1  LIG  -0.1684  -0.1500 
6     C6       5.6206   -7.8034   -0.1010 C.ar    1  LIG   0.1267   0.1000 
7     N1       6.8522   -7.3107   -0.5041 N.pl3   1  LIG  -0.8164  -0.9000 
8     F1       1.9213   -9.2248    1.0785 F       1  LIG  -0.1453  -0.1900 
9     H1       7.4119   -6.7527    0.1267 H       1  LIG   0.3899   0.4000 
10    H2       7.2425   -7.5770   -1.3982 H       1  LIG   0.3899   0.4000 
11    H3       5.2418   -8.8780   -1.9406 H       1  LIG   0.1366   0.1500 
12    H4       3.0335   -9.7283   -1.2250 H       1  LIG   0.1466   0.1500 
13    H5       3.4513   -7.6962    2.5343 H       1  LIG   0.1466   0.1500 
14    H6       5.6613   -6.8372    1.8348 H       1  LIG   0.1367   0.1500 
@<TRIPOS>BOND
1     1     6     ar
2     1     2     ar
3     1     11    1
4     2     3     ar
5     2     12    1
6     3     4     ar
7     3     8     1
8     4     5     ar
9     4     13    1
10    5     6     ar
11    5     14    1
12    6     7     1
13    7     9     1
14    7     10    1
@<TRIPOS>SUBSTRUCTURE
1   LIG    1    
 
########## Number      : 794
########## Name        : ZINC00013614
########## Description : AM1BCC_CHARGES =  -0.0001 ORIGINAL_CHARGES =   0.0000

@<TRIPOS>MOLECULE
ZINC00013614
14    14    1     0     0    
SMALL
USER_CHARGES
****
****
@<TRIPOS>ATOM
1     C1       4.8745   -8.5778   -0.9962 C.ar    1  LIG  -0.1977  -0.1500 
2     C2       3.6053   -8.9978   -0.5902 C.ar    1  LIG  -0.0623  -0.1500 
3     C3       3.1526   -8.6839    0.6893 C.ar    1  LIG  -0.0753   0.1110 
4     C4       3.9563   -7.9538    1.5619 C.ar    1  LIG  -0.0624  -0.1500 
5     C5       5.2242   -7.5375    1.1485 C.ar    1  LIG  -0.1974  -0.1500 
6     C6       5.7004   -7.8501   -0.1307 C.ar    1  LIG   0.1611   0.1000 
7     N1       6.9517   -7.4196   -0.5435 N.pl3   1  LIG  -0.8258  -0.9000 
8     Br1      1.4354   -9.2493    1.2435 Br      1  LIG  -0.0951  -0.1110 
9     H1       7.5591   -6.9240    0.0952 H       1  LIG   0.3971   0.4000 
10    H2       7.3063   -7.6761   -1.4552 H       1  LIG   0.3971   0.4000 
11    H3       5.2157   -8.8255   -1.9987 H       1  LIG   0.1363   0.1500 
12    H4       2.9866   -9.5638   -1.2812 H       1  LIG   0.1440   0.1500 
13    H5       3.6132   -7.7000    2.5612 H       1  LIG   0.1440   0.1500 
14    H6       5.8412   -6.9648    1.8372 H       1  LIG   0.1363   0.1500 
@<TRIPOS>BOND
1     1     6     ar
2     1     2     ar
3     1     11    1
4     2     3     ar
5     2     12    1
6     3     4     ar
7     3     8     1
8     4     5     ar
9     4     13    1
10    5     6     ar
11    5     14    1
12    6     7     1
13    7     9     1
14    7     10    1
@<TRIPOS>SUBSTRUCTURE
1   LIG    1    
 
########## Number      : 795
########## Name        : ZINC00013615
########## Description : AM1BCC_CHARGES =  -0.0001 ORIGINAL_CHARGES =   0.0000

@<TRIPOS>MOLECULE
ZINC00013615
14    14    1     0     0    
SMALL
USER_CHARGES
****
****
@<TRIPOS>ATOM
1     C1       4.8745   -8.5581   -1.0135 C.ar    1  LIG  -0.2019  -0.1500 
2     C2       3.6010   -8.9587   -0.6001 C.ar    1  LIG  -0.0550  -0.1500 
3     C3       3.1695   -8.6613    0.6914 C.ar    1  LIG  -0.0267   0.0810 
4     C4       4.0011   -7.9659    1.5675 C.ar    1  LIG  -0.0550  -0.1500 
5     C5       5.2730   -7.5691    1.1459 C.ar    1  LIG  -0.2017  -0.1500 
6     C6       5.7268   -7.8661   -0.1448 C.ar    1  LIG   0.1670   0.1000 
7     N1       6.9820   -7.4545   -0.5650 N.pl3   1  LIG  -0.8276  -0.9000 
8     I1       1.2761   -9.2539    1.3123 I       1  LIG  -0.1501  -0.0810 
9     H1       7.6081   -6.9857    0.0759 H       1  LIG   0.3982   0.4000 
10    H2       7.3199   -7.7009   -1.4856 H       1  LIG   0.3982   0.4000 
11    H3       5.1978   -8.7930   -2.0251 H       1  LIG   0.1357   0.1500 
12    H4       2.9657   -9.4970   -1.2985 H       1  LIG   0.1415   0.1500 
13    H5       3.6810   -7.7220    2.5770 H       1  LIG   0.1415   0.1500 
14    H6       5.9108   -7.0238    1.8379 H       1  LIG   0.1358   0.1500 
@<TRIPOS>BOND
1     1     6     ar
2     1     2     ar
3     1     11    1
4     2     3     ar
5     2     12    1
6     3     4     ar
7     3     8     1
8     4     5     ar
9     4     13    1
10    5     6     ar
11    5     14    1
12    6     7     1
13    7     9     1
14    7     10    1
@<TRIPOS>SUBSTRUCTURE
1   LIG    1    
 
########## Number      : 796
########## Name        : ZINC00013616
########## Description : AM1BCC_CHARGES =   0.0000 ORIGINAL_CHARGES =   0.0000

@<TRIPOS>MOLECULE
ZINC00013616
14    14    1     0     0    
SMALL
USER_CHARGES
****
****
@<TRIPOS>ATOM
1     C1       5.7007   -9.3524    0.7880 C.ar    1  LIG  -0.0958  -0.1500 
2     C2       4.4763   -9.4365    1.4547 C.ar    1  LIG  -0.1758  -0.1500 
3     C3       3.3971   -8.6295    1.0743 C.ar    1  LIG   0.1389   0.1000 
4     C4       3.5708   -7.7239    0.0201 C.ar    1  LIG  -0.1622  -0.1500 
5     C5       4.7974   -7.6422   -0.6451 C.ar    1  LIG   0.0639   0.0810 
6     C6       5.8643   -8.4550   -0.2654 C.ar    1  LIG  -0.1417  -0.1500 
7     I1       5.0342   -6.2950   -2.2128 I       1  LIG  -0.1492  -0.0810 
8     N1       2.1887   -8.7033    1.7504 N.pl3   1  LIG  -0.8196  -0.9000 
9     H1       1.4001   -8.1446    1.4527 H       1  LIG   0.3926   0.4000 
10    H2       2.0559   -9.3816    2.4885 H       1  LIG   0.3920   0.4000 
11    H3       6.5276   -9.9875    1.0931 H       1  LIG   0.1352   0.1500 
12    H4       4.3707  -10.1408    2.2765 H       1  LIG   0.1346   0.1500 
13    H5       2.7411   -7.0857   -0.2762 H       1  LIG   0.1431   0.1500 
14    H6       6.8241   -8.4032   -0.7720 H       1  LIG   0.1440   0.1500 
@<TRIPOS>BOND
1     1     6     ar
2     1     2     ar
3     1     11    1
4     2     3     ar
5     2     12    1
6     3     4     ar
7     3     8     1
8     4     5     ar
9     4     13    1
10    5     6     ar
11    5     7     1
12    6     14    1
13    8     9     1
14    8     10    1
@<TRIPOS>SUBSTRUCTURE
1   LIG    1    
 
########## Number      : 797
########## Name        : ZINC00013658
########## Description : AM1BCC_CHARGES =  -0.0001 ORIGINAL_CHARGES =  -0.0000

@<TRIPOS>MOLECULE
ZINC00013658
25    26    1     0     0    
SMALL
USER_CHARGES
****
****
@<TRIPOS>ATOM
1     C1       4.5667   -7.9085   -0.0429 C.ar    1  LIG  -0.2483  -0.1500 
2     C2       3.3257   -7.2708   -0.1058 C.ar    1  LIG   0.0305  -0.1500 
3     C3       3.2240   -6.0433   -0.7549 C.ar    1  LIG  -0.4576  -0.0090 
4     C4       4.3384   -5.4530   -1.3489 C.ar    1  LIG   0.0441  -0.1500 
5     C5       5.5736   -6.0998   -1.2795 C.ar    1  LIG  -0.2478  -0.1500 
6     C6       5.7043   -7.3281   -0.6190 C.ar    1  LIG   0.2582   0.1000 
7     N1       6.9287   -7.9768   -0.5710 N.pl3   1  LIG  -0.8768  -0.9000 
8     S1       1.6709   -5.2175   -0.8469 S.o2    1  LIG   1.4997   1.3710 
9     O1       1.4127   -4.9320   -2.2438 O.2     1  LIG  -0.6682  -0.6500 
10    O2       0.7069   -5.9187   -0.0229 O.2     1  LIG  -0.6690  -0.6500 
11    C7       1.8730   -3.6475   -0.0769 C.2     1  LIG  -0.5749  -0.0220 
12    C8       1.7196   -2.3532   -0.5204 C.2     1  LIG   0.5012   0.0772 
13    N2       1.9832   -1.3666    0.4081 N.2     1  LIG  -0.7160  -0.5653 
14    C9       2.3323   -1.9090    1.5556 C.2     1  LIG   0.6351   0.4621 
15    S2       2.3578   -3.6342    1.5618 S.3     1  LIG   0.0397  -0.0800 
16    N3       2.6541   -1.2216    2.6677 N.pl3   1  LIG  -0.9077  -0.8840 
17    H1       7.7558   -7.5371   -0.9522 H       1  LIG   0.4329   0.4000 
18    H2       7.0288   -8.8432   -0.0592 H       1  LIG   0.4327   0.4000 
19    H3       2.6444   -0.2077    2.6845 H       1  LIG   0.4279   0.4000 
20    H4       2.9162   -1.6861    3.5301 H       1  LIG   0.4153   0.4000 
21    H5       4.6402   -8.8685    0.4633 H       1  LIG   0.1373   0.1500 
22    H6       2.4639   -7.7464    0.3526 H       1  LIG   0.1585   0.1500 
23    H7       4.2646   -4.5013   -1.8675 H       1  LIG   0.1430   0.1500 
24    H8       6.4388   -5.6357   -1.7475 H       1  LIG   0.1372   0.1500 
25    H9       1.4169   -2.0684   -1.5194 H       1  LIG   0.0729   0.1500 
@<TRIPOS>BOND
1     1     6     ar
2     1     2     ar
3     1     21    1
4     2     3     ar
5     2     22    1
6     3     4     ar
7     3     8     1
8     4     5     ar
9     4     23    1
10    5     6     ar
11    5     24    1
12    6     7     1
13    7     17    1
14    7     18    1
15    8     9     2
16    8     10    2
17    8     11    1
18    11    15    1
19    11    12    2
20    12    13    1
21    12    25    1
22    13    14    2
23    14    15    1
24    14    16    1
25    16    19    1
26    16    20    1
@<TRIPOS>SUBSTRUCTURE
1   LIG    1    
 
########## Number      : 798
########## Name        : ZINC00014023
########## Description : AM1BCC_CHARGES =   0.0002 ORIGINAL_CHARGES =   0.0000

@<TRIPOS>MOLECULE
ZINC00014023
25    27    1     0     0    
SMALL
USER_CHARGES
****
****
@<TRIPOS>ATOM
1     C1      -1.8335    1.3955    3.1831 C.ar    1  LIG  -0.1419  -0.1500 
2     C2      -1.1156    0.3015    2.7202 C.ar    1  LIG  -0.0915  -0.1500 
3     C3      -0.7233    0.2407    1.3817 C.ar    1  LIG  -0.1322  -0.1500 
4     C4      -1.0347    1.2721    0.4721 C.ar    1  LIG   0.0154   0.1015 
5     C5      -1.7804    2.3766    0.9540 C.ar    1  LIG  -0.1753   0.0862 
6     C6      -2.1624    2.4278    2.3075 C.ar    1  LIG  -0.0673  -0.1500 
7     C7      -2.1803    3.5622    0.1340 C.2     1  LIG   0.6826   0.5438 
8     O1      -2.3863    4.6552    0.6512 O.2     1  LIG  -0.5327  -0.5700 
9     N1      -2.2301    3.3254   -1.2289 N.am    1  LIG  -0.4305  -0.5470 
10    C8      -1.0024    3.5849   -1.8777 C.ar    1  LIG   0.0178   0.1170 
11    C9      -0.7077    4.8526   -2.3772 C.ar    1  LIG  -0.0923  -0.1500 
12    C10      0.5321    5.0737   -2.9730 C.ar    1  LIG  -0.1119  -0.1500 
13    C11      1.4666    4.0387   -3.0498 C.ar    1  LIG  -0.1297  -0.1500 
14    C12      1.1719    2.7787   -2.5204 C.ar    1  LIG  -0.0839  -0.1500 
15    C13     -0.0645    2.5460   -1.9132 C.ar    1  LIG  -0.0830   0.1015 
16    S1      -0.4310    0.9516   -1.2018 S.3     1  LIG  -0.0978  -0.2030 
17    H1      -2.5562    2.3832   -1.4426 H       1  LIG   0.2800   0.3700 
18    H2      -2.1387    1.4469    4.2242 H       1  LIG   0.1422   0.1500 
19    H3      -0.8581   -0.5073    3.3982 H       1  LIG   0.1398   0.1500 
20    H4      -0.1611   -0.6349    1.0593 H       1  LIG   0.1485   0.1500 
21    H5      -2.7283    3.2717    2.6968 H       1  LIG   0.1588   0.1500 
22    H6      -1.4319    5.6593   -2.3126 H       1  LIG   0.1593   0.1500 
23    H7       0.7735    6.0530   -3.3765 H       1  LIG   0.1402   0.1500 
24    H8       2.4320    4.2162   -3.5161 H       1  LIG   0.1393   0.1500 
25    H9       1.9216    1.9934   -2.5797 H       1  LIG   0.1463   0.1500 
@<TRIPOS>BOND
1     1     6     ar
2     1     2     ar
3     1     18    1
4     2     3     ar
5     2     19    1
6     3     4     ar
7     3     20    1
8     4     16    1
9     4     5     ar
10    5     6     ar
11    5     7     1
12    6     21    1
13    7     8     2
14    7     9     am
15    9     10    1
16    9     17    1
17    10    15    ar
18    10    11    ar
19    11    12    ar
20    11    22    1
21    12    13    ar
22    12    23    1
23    13    14    ar
24    13    24    1
25    14    15    ar
26    14    25    1
27    15    16    1
@<TRIPOS>SUBSTRUCTURE
1   LIG    1    
 
########## Number      : 799
########## Name        : ZINC00014036
########## Description : AM1BCC_CHARGES =   0.0004 ORIGINAL_CHARGES =   0.0000

@<TRIPOS>MOLECULE
ZINC00014036
30    31    1     0     0    
SMALL
USER_CHARGES
****
****
@<TRIPOS>ATOM
1     C1       5.4939   -6.5567    0.3249 C.ar    1  LIG  -0.1165  -0.1500 
2     C2       6.1678   -7.7456    0.6197 C.ar    1  LIG  -0.1700  -0.1500 
3     C3       5.8742   -8.4257    1.7969 C.ar    1  LIG   0.0440   0.0825 
4     C4       4.9130   -7.9262    2.6698 C.ar    1  LIG   0.1097   0.0825 
5     C5       4.2383   -6.7407    2.3811 C.ar    1  LIG  -0.1220  -0.1500 
6     C6       4.5328   -6.0330    1.2063 C.ar    1  LIG  -0.0563   0.0284 
7     C7       3.8354   -4.7915    0.8291 C.2     1  LIG  -0.0910  -0.1784 
8     C8       3.3706   -3.8859    1.7053 C.2     1  LIG  -0.1131  -0.1784 
9     C9       2.6732   -2.6447    1.3273 C.ar    1  LIG   0.0160   0.0284 
10    C10      2.9753   -1.9332    0.1564 C.ar    1  LIG  -0.1827  -0.1500 
11    C11      2.3020   -0.7463   -0.1378 C.ar    1  LIG   0.1573   0.0825 
12    C12      1.3312   -0.2407    0.7211 C.ar    1  LIG  -0.2433  -0.1500 
13    C13      1.0424   -0.9365    1.8900 C.ar    1  LIG   0.1628   0.0825 
14    C14      1.7059   -2.1254    2.2020 C.ar    1  LIG  -0.2404  -0.1500 
15    O1       0.0913   -0.4219    2.7261 O.3     1  LIG  -0.4970  -0.5325 
16    O2       2.6282   -0.0923   -1.2932 O.3     1  LIG  -0.4963  -0.5325 
17    O3       4.6024   -8.5847    3.8269 O.3     1  LIG  -0.4951  -0.5325 
18    O4       6.5128   -9.5906    2.1167 O.3     1  LIG  -0.5156  -0.5325 
19    H1      -0.0009   -1.0123    3.4933 H       1  LIG   0.4222   0.4500 
20    H2       2.0826    0.7100   -1.3598 H       1  LIG   0.4224   0.4500 
21    H3       5.1620   -9.3813    3.8630 H       1  LIG   0.4374   0.4500 
22    H4       7.1469   -9.8001    1.4095 H       1  LIG   0.4302   0.4500 
23    H5       5.7337   -6.0381   -0.6015 H       1  LIG   0.1382   0.1500 
24    H6       6.9112   -8.1243   -0.0755 H       1  LIG   0.1367   0.1500 
25    H7       3.4798   -6.3855    3.0740 H       1  LIG   0.1544   0.1500 
26    H8       3.7194   -4.6350   -0.2406 H       1  LIG   0.1327   0.1500 
27    H9       3.4864   -4.0420    2.7751 H       1  LIG   0.1325   0.1500 
28    H10      3.7400   -2.2867   -0.5308 H       1  LIG   0.1527   0.1500 
29    H11      0.8078    0.6827    0.4925 H       1  LIG   0.1531   0.1500 
30    H12      1.4649   -2.6513    3.1232 H       1  LIG   0.1374   0.1500 
@<TRIPOS>BOND
1     1     6     ar
2     1     2     ar
3     1     23    1
4     2     3     ar
5     2     24    1
6     3     4     ar
7     3     18    1
8     4     5     ar
9     4     17    1
10    5     6     ar
11    5     25    1
12    6     7     1
13    7     8     2
14    7     26    1
15    8     9     1
16    8     27    1
17    9     14    ar
18    9     10    ar
19    10    11    ar
20    10    28    1
21    11    12    ar
22    11    16    1
23    12    13    ar
24    12    29    1
25    13    14    ar
26    13    15    1
27    14    30    1
28    15    19    1
29    16    20    1
30    17    21    1
31    18    22    1
@<TRIPOS>SUBSTRUCTURE
1   LIG    1    
 
########## Number      : 800
########## Name        : ZINC00014106
########## Description : AM1BCC_CHARGES =   0.0000 ORIGINAL_CHARGES =  -0.0000

@<TRIPOS>MOLECULE
ZINC00014106
27    28    1     0     0    
SMALL
USER_CHARGES
****
****
@<TRIPOS>ATOM
1     C1       7.2175   -5.0797    1.3220 C.3     1  LIG  -0.1200   0.0000 
2     C2       6.1195   -4.1112    0.9116 C.3     1  LIG   0.1034   0.3001 
3     N1       4.7976   -4.7376    0.9642 N.am    1  LIG  -0.4135  -0.4231 
4     C3       4.0675   -4.7480    2.1425 C.2     1  LIG   0.4872   0.2902 
5     C4       2.8343   -5.3312    2.2203 C.2     1  LIG  -0.3543  -0.2366 
6     C5       2.1802   -5.9801    1.1341 C.2     1  LIG   0.7610   0.7150 
7     O1       1.0603   -6.4750    1.2237 O.2     1  LIG  -0.6245  -0.5700 
8     N2       2.9759   -5.9738   -0.0396 N.am    1  LIG  -0.4835  -0.4201 
9     C6       4.2696   -5.3688   -0.1875 C.2     1  LIG   0.8132   0.6900 
10    O2       4.8870   -5.3959   -1.2579 O.2     1  LIG  -0.6372  -0.5700 
11    C7       2.4096   -6.6270   -1.2239 C.3     1  LIG   0.0945   0.3001 
12    C8       1.6065   -5.6473   -2.0672 C.3     1  LIG  -0.1147   0.0000 
13    N3       2.4294   -5.1407    3.5100 N.pl3   1  LIG  -0.2679   0.0332 
14    C9       3.4342   -4.4587    4.1460 C.2     1  LIG   0.4468   0.0365 
15    N4       4.4446   -4.2048    3.3400 N.2     1  LIG  -0.6855  -0.5653 
16    H1       1.5563   -5.4458    3.9199 H       1  LIG   0.3271   0.2700 
17    H2       8.1958   -4.5930    1.2622 H       1  LIG   0.0487   0.0000 
18    H3       7.0719   -5.4299    2.3490 H       1  LIG   0.0498   0.0000 
19    H4       7.2309   -5.9583    0.6686 H       1  LIG   0.0481   0.0000 
20    H5       6.1261   -3.2263    1.5582 H       1  LIG   0.0716   0.0000 
21    H6       6.3113   -3.7630   -0.1096 H       1  LIG   0.0825   0.0000 
22    H7       3.2162   -7.0552   -1.8289 H       1  LIG   0.0763   0.0000 
23    H8       1.7626   -7.4544   -0.9121 H       1  LIG   0.0756   0.0000 
24    H9       1.1913   -6.1524   -2.9447 H       1  LIG   0.0473   0.0000 
25    H10      0.7774   -5.2210   -1.4930 H       1  LIG   0.0466   0.0000 
26    H11      2.2330   -4.8188   -2.4133 H       1  LIG   0.0499   0.0000 
27    H12      3.3671   -4.1797    5.1882 H       1  LIG   0.0715   0.1500 
@<TRIPOS>BOND
1     1     2     1
2     1     17    1
3     1     18    1
4     1     19    1
5     2     3     1
6     2     20    1
7     2     21    1
8     3     9     am
9     3     4     1
10    4     15    1
11    4     5     2
12    5     6     1
13    5     13    1
14    6     7     2
15    6     8     am
16    8     9     am
17    8     11    1
18    9     10    2
19    11    12    1
20    11    22    1
21    11    23    1
22    12    24    1
23    12    25    1
24    12    26    1
25    13    14    1
26    13    16    1
27    14    15    2
28    14    27    1
@<TRIPOS>SUBSTRUCTURE
1   LIG    1    
 
########## Number      : 801
########## Name        : ZINC00014362
########## Description : AM1BCC_CHARGES =  -0.0000 ORIGINAL_CHARGES =   0.0000

@<TRIPOS>MOLECULE
ZINC00014362
20    21    1     0     0    
SMALL
USER_CHARGES
****
****
@<TRIPOS>ATOM
1     C1       2.2326   -0.1557    0.3983 C.ar    1  LIG  -0.1549  -0.1500 
2     C2       3.1132   -0.5305   -0.6253 C.ar    1  LIG  -0.0785  -0.1500 
3     C3       3.6549   -1.8101   -0.6400 C.ar    1  LIG   0.0055   0.0810 
4     C4       3.3208   -2.7130    0.3621 C.ar    1  LIG  -0.0788  -0.1500 
5     C5       2.4405   -2.3305    1.3830 C.ar    1  LIG  -0.1567  -0.1500 
6     C6       1.8746   -1.0444    1.4270 C.ar    1  LIG   0.0820   0.1170 
7     N1       0.9743   -0.6572    2.4723 N.am    1  LIG  -0.4366  -0.2370 
8     C7       0.7436   -1.3698    3.6302 C.2     1  LIG   0.6942   0.6156 
9     O1       1.2210   -2.4093    4.0543 O.2     1  LIG  -0.5451  -0.5700 
10    C8      -0.2471   -0.6149    4.4099 C.2     1  LIG  -0.1701  -0.1356 
11    C9      -0.5595    0.4854    3.7333 C.2     1  LIG  -0.1696  -0.1356 
12    C10      0.2033    0.4862    2.4773 C.2     1  LIG   0.6941   0.6156 
13    O2       0.0670    1.3790    1.6571 O.2     1  LIG  -0.5449  -0.5700 
14    I1       4.9595   -2.3712   -2.1547 I       1  LIG  -0.1399  -0.0810 
15    H1       1.8639    0.8640    0.3640 H       1  LIG   0.1657   0.1500 
16    H2       3.3620    0.1963   -1.3945 H       1  LIG   0.1482   0.1500 
17    H3       3.7268   -3.7215    0.3710 H       1  LIG   0.1483   0.1500 
18    H4       2.2032   -3.0896    2.1208 H       1  LIG   0.1664   0.1500 
19    H5      -0.6284   -0.9243    5.3684 H       1  LIG   0.1854   0.1500 
20    H6      -1.2528    1.2569    4.0226 H       1  LIG   0.1853   0.1500 
@<TRIPOS>BOND
1     1     6     ar
2     1     2     ar
3     1     15    1
4     2     3     ar
5     2     16    1
6     3     4     ar
7     3     14    1
8     4     5     ar
9     4     17    1
10    5     6     ar
11    5     18    1
12    6     7     1
13    7     12    am
14    7     8     am
15    8     9     2
16    8     10    1
17    10    11    2
18    10    19    1
19    11    12    1
20    11    20    1
21    12    13    2
@<TRIPOS>SUBSTRUCTURE
1   LIG    1    
 
########## Number      : 802
########## Name        : ZINC00014479
########## Description : AM1BCC_CHARGES =  -0.0000 ORIGINAL_CHARGES =   0.0000

@<TRIPOS>MOLECULE
ZINC00014479
25    26    1     0     0    
SMALL
USER_CHARGES
****
****
@<TRIPOS>ATOM
1     C1       3.9165   -7.5756   -1.7938 C.ar    1  LIG  -0.1774  -0.1500 
2     C2       2.6287   -7.1496   -1.4609 C.ar    1  LIG  -0.0962  -0.1500 
3     C3       2.4215   -6.4118   -0.2964 C.ar    1  LIG   0.0461   0.0825 
4     C4       3.4914   -6.1357    0.5572 C.ar    1  LIG  -0.1169  -0.1500 
5     C5       4.7767   -6.5654    0.2175 C.ar    1  LIG  -0.1766  -0.1500 
6     C6       5.0065   -7.2745   -0.9681 C.ar    1  LIG   0.1319   0.1000 
7     N1       6.2786   -7.7280   -1.2843 N.pl3   1  LIG  -0.8179  -0.9000 
8     O1       1.1255   -6.0508   -0.0037 O.3     1  LIG  -0.2496  -0.1650 
9     C7       0.9099   -4.7489    0.3906 C.ar    1  LIG   0.1055   0.0825 
10    C8       1.4131   -3.6546   -0.3204 C.ar    1  LIG  -0.1586  -0.1500 
11    C9       1.1263   -2.3584    0.1097 C.ar    1  LIG  -0.1039  -0.1500 
12    C10      0.3266   -2.1637    1.2366 C.ar    1  LIG  -0.0036   0.1770 
13    C11     -0.1949   -3.2540    1.9340 C.ar    1  LIG  -0.1063  -0.1500 
14    C12      0.0914   -4.5500    1.5045 C.ar    1  LIG  -0.1357  -0.1500 
15    Cl1     -0.0274   -0.5636    1.7658 Cl      1  LIG  -0.0952  -0.1770 
16    H1       7.0710   -7.4539   -0.7188 H       1  LIG   0.3904   0.4000 
17    H2       6.4499   -8.1834   -2.1709 H       1  LIG   0.3907   0.4000 
18    H3       4.0628   -8.1483   -2.7066 H       1  LIG   0.1368   0.1500 
19    H4       1.7954   -7.3935   -2.1141 H       1  LIG   0.1494   0.1500 
20    H5       3.3409   -5.5995    1.4898 H       1  LIG   0.1457   0.1500 
21    H6       5.6012   -6.3443    0.8914 H       1  LIG   0.1360   0.1500 
22    H7       2.0205   -3.7965   -1.2099 H       1  LIG   0.1513   0.1500 
23    H8       1.5255   -1.5123   -0.4433 H       1  LIG   0.1489   0.1500 
24    H9      -0.8252   -3.1078    2.8071 H       1  LIG   0.1500   0.1500 
25    H10     -0.3197   -5.3994    2.0433 H       1  LIG   0.1552   0.1500 
@<TRIPOS>BOND
1     1     6     ar
2     1     2     ar
3     1     18    1
4     2     3     ar
5     2     19    1
6     3     4     ar
7     3     8     1
8     4     5     ar
9     4     20    1
10    5     6     ar
11    5     21    1
12    6     7     1
13    7     16    1
14    7     17    1
15    8     9     1
16    9     14    ar
17    9     10    ar
18    10    11    ar
19    10    22    1
20    11    12    ar
21    11    23    1
22    12    13    ar
23    12    15    1
24    13    14    ar
25    13    24    1
26    14    25    1
@<TRIPOS>SUBSTRUCTURE
1   LIG    1    
 
########## Number      : 803
########## Name        : ZINC00014542
########## Description : AM1BCC_CHARGES =  -0.0001 ORIGINAL_CHARGES =   0.0000

@<TRIPOS>MOLECULE
ZINC00014542
39    41    1     0     0    
SMALL
USER_CHARGES
****
****
@<TRIPOS>ATOM
1     C1       5.6067   -7.9996   -1.0988 C.3     1  LIG  -0.1295   0.0000 
2     C2       4.7235   -7.2282   -0.1341 C.3     1  LIG   0.1270   0.2800 
3     O1       5.5128   -6.3838    0.7023 O.3     1  LIG  -0.3310  -0.3625 
4     C3       5.9196   -6.8467    1.9278 C.ar    1  LIG   0.1361   0.0825 
5     C4       5.8423   -8.1863    2.3330 C.ar    1  LIG  -0.1826  -0.1500 
6     C5       6.3025   -8.5143    3.5927 C.ar    1  LIG   0.0862   0.0825 
7     C6       6.8301   -7.5741    4.4415 C.ar    1  LIG   0.0199   0.0825 
8     C7       6.9302   -6.2495    4.0776 C.ar    1  LIG  -0.0784  -0.1500 
9     C8       6.4752   -5.8698    2.8007 C.ar    1  LIG  -0.1045  -0.1435 
10    C9       6.5641   -4.4089    2.4044 C.3     1  LIG   0.0240   0.2870 
11    C10      5.2997   -3.6302    2.6774 C.ar    1  LIG  -0.1082  -0.1435 
12    C11      4.3799   -3.3795    1.6530 C.ar    1  LIG  -0.0879  -0.1500 
13    C12      3.2041   -2.6725    1.9142 C.ar    1  LIG  -0.1584  -0.1500 
14    C13      2.9250   -2.2044    3.2015 C.ar    1  LIG   0.1211   0.0825 
15    C14      3.8379   -2.4517    4.2280 C.ar    1  LIG  -0.2027  -0.1500 
16    C15      5.0156   -3.1601    3.9663 C.ar    1  LIG  -0.0906  -0.1500 
17    O2       1.7414   -1.5271    3.3260 O.3     1  LIG  -0.3290  -0.3625 
18    C16      1.4179   -1.0349    4.6210 C.3     1  LIG   0.1140   0.2800 
19    O3       7.2222   -8.1078    5.6296 O.3     1  LIG  -0.3343  -0.3625 
20    C17      6.8818   -9.4951    5.4321 C.3     1  LIG   0.3220   0.5600 
21    O4       6.2994   -9.7610    4.1399 O.3     1  LIG  -0.3350  -0.3625 
22    H1       4.9999   -8.5977   -1.7846 H       1  LIG   0.0459   0.0000 
23    H2       6.2244   -7.3113   -1.6853 H       1  LIG   0.0524   0.0000 
24    H3       6.2933   -8.6659   -0.5685 H       1  LIG   0.0469   0.0000 
25    H4       4.0737   -6.5648   -0.7164 H       1  LIG   0.0664   0.0000 
26    H5       4.0514   -7.8808    0.4337 H       1  LIG   0.0480   0.0000 
27    H6       5.4481   -8.9711    1.6992 H       1  LIG   0.1608   0.1500 
28    H7       7.3508   -5.5221    4.7645 H       1  LIG   0.1552   0.1500 
29    H8       7.3983   -3.9312    2.9365 H       1  LIG   0.0510   0.0000 
30    H9       6.8417   -4.3254    1.3455 H       1  LIG   0.0691   0.0000 
31    H10      4.5702   -3.7322    0.6425 H       1  LIG   0.1414   0.1500 
32    H11      2.5035   -2.4891    1.1030 H       1  LIG   0.1467   0.1500 
33    H12      3.6666   -2.1095    5.2437 H       1  LIG   0.1357   0.1500 
34    H13      5.7120   -3.3413    4.7816 H       1  LIG   0.1299   0.1500 
35    H14      0.4523   -0.5247    4.5525 H       1  LIG   0.0649   0.0000 
36    H15      1.3108   -1.8543    5.3395 H       1  LIG   0.0330   0.0000 
37    H16      2.1576   -0.3027    4.9613 H       1  LIG   0.0320   0.0000 
38    H17      7.7909  -10.0982    5.5382 H       1  LIG   0.0711   0.0000 
39    H18      6.1677   -9.7953    6.2076 H       1  LIG   0.0713   0.0000 
@<TRIPOS>BOND
1     1     2     1
2     1     22    1
3     1     23    1
4     1     24    1
5     2     3     1
6     2     25    1
7     2     26    1
8     3     4     1
9     4     9     ar
10    4     5     ar
11    5     6     ar
12    5     27    1
13    6     21    1
14    6     7     ar
15    7     8     ar
16    7     19    1
17    8     9     ar
18    8     28    1
19    9     10    1
20    10    11    1
21    10    29    1
22    10    30    1
23    11    16    ar
24    11    12    ar
25    12    13    ar
26    12    31    1
27    13    14    ar
28    13    32    1
29    14    15    ar
30    14    17    1
31    15    16    ar
32    15    33    1
33    16    34    1
34    17    18    1
35    18    35    1
36    18    36    1
37    18    37    1
38    19    20    1
39    20    21    1
40    20    38    1
41    20    39    1
@<TRIPOS>SUBSTRUCTURE
1   LIG    1    
 
########## Number      : 804
########## Name        : ZINC00014550
########## Description : AM1BCC_CHARGES =  -0.0001 ORIGINAL_CHARGES =   0.0000

@<TRIPOS>MOLECULE
ZINC00014550
36    38    1     0     0    
SMALL
USER_CHARGES
****
****
@<TRIPOS>ATOM
1     C1       3.1678    4.3201   -5.2062 C.3     1  LIG  -0.0875   0.1382 
2     C2       2.2166    3.5636   -4.3157 C.2     1  LIG   0.0501  -0.1782 
3     C3       2.1735    2.2189   -4.2691 C.2     1  LIG  -0.1924   0.0144 
4     C4       1.3371    1.5155   -3.3364 C.2     1  LIG  -0.1659   0.0144 
5     C5       1.4292    0.1910   -3.5039 C.2     1  LIG  -0.0673  -0.2882 
6     C6       2.3830   -0.2153   -4.6128 C.3     1  LIG  -0.1341   0.1992 
7     C7       2.8731    1.1644   -5.0626 C.2     1  LIG   0.5911   0.4946 
8     O1       3.6911    1.3611   -5.9463 O.2     1  LIG  -0.5208  -0.5700 
9     C8       3.5458   -1.0443   -4.0763 C.3     1  LIG  -0.0799   0.0000 
10    C9       1.6533   -0.9226   -5.7501 C.3     1  LIG  -0.0787   0.0000 
11    C10      0.5892    2.2217   -2.2715 C.2     1  LIG   0.5642   0.4946 
12    O2      -0.2209    1.6219   -1.5692 O.2     1  LIG  -0.5269  -0.5700 
13    C11      0.9625    3.7084   -2.0626 C.3     1  LIG   0.1095   0.4360 
14    C12      1.2651    4.3648   -3.4393 C.3     1  LIG  -0.0868  -0.0550 
15    C13      1.2104    5.8797   -3.5770 C.3     1  LIG  -0.1020  -0.2000 
16    C14      0.1377    5.0467   -4.2104 C.3     1  LIG  -0.1125  -0.2000 
17    C15     -0.1558    4.3822   -1.2537 C.3     1  LIG  -0.1247   0.0000 
18    O3       2.1566    3.7557   -1.2888 O.3     1  LIG  -0.5777  -0.6800 
19    H1       1.9634    3.3860   -0.4102 H       1  LIG   0.4077   0.4000 
20    H2       3.9077    3.6855   -5.6962 H       1  LIG   0.0816   0.0000 
21    H3       2.6202    4.8512   -5.9912 H       1  LIG   0.0501   0.0000 
22    H4       3.7372    5.0476   -4.6178 H       1  LIG   0.0630   0.0000 
23    H5       0.9126   -0.5353   -2.8888 H       1  LIG   0.1607   0.1500 
24    H6       3.1966   -1.9950   -3.6581 H       1  LIG   0.0424   0.0000 
25    H7       4.2670   -1.2694   -4.8704 H       1  LIG   0.0573   0.0000 
26    H8       4.0918   -0.5114   -3.2886 H       1  LIG   0.0466   0.0000 
27    H9       1.2126   -1.8674   -5.4129 H       1  LIG   0.0433   0.0000 
28    H10      0.8464   -0.3030   -6.1593 H       1  LIG   0.0450   0.0000 
29    H11      2.3374   -1.1449   -6.5771 H       1  LIG   0.0563   0.0000 
30    H12      1.8864    6.4039   -4.2415 H       1  LIG   0.0801   0.1000 
31    H13      0.9424    6.4862   -2.7208 H       1  LIG   0.0823   0.1000 
32    H14      0.1281    4.9843   -5.2938 H       1  LIG   0.0795   0.1000 
33    H15     -0.8576    5.1023   -3.7899 H       1  LIG   0.0812   0.1000 
34    H16     -1.1256    4.3302   -1.7573 H       1  LIG   0.0557   0.0000 
35    H17     -0.2728    3.8975   -0.2763 H       1  LIG   0.0576   0.0000 
36    H18      0.0751    5.4286   -1.0330 H       1  LIG   0.0518   0.0000 
@<TRIPOS>BOND
1     1     2     1
2     1     20    1
3     1     21    1
4     1     22    1
5     2     14    1
6     2     3     2
7     3     7     1
8     3     4     1
9     4     5     2
10    4     11    1
11    5     6     1
12    5     23    1
13    6     7     1
14    6     9     1
15    6     10    1
16    7     8     2
17    9     24    1
18    9     25    1
19    9     26    1
20    10    27    1
21    10    28    1
22    10    29    1
23    11    12    2
24    11    13    1
25    13    14    1
26    13    17    1
27    13    18    1
28    14    16    1
29    14    15    1
30    15    16    1
31    15    30    1
32    15    31    1
33    16    32    1
34    16    33    1
35    17    34    1
36    17    35    1
37    17    36    1
38    18    19    1
@<TRIPOS>SUBSTRUCTURE
1   LIG    1    
 
########## Number      : 805
########## Name        : ZINC00014672
########## Description : AM1BCC_CHARGES =  -0.0002 ORIGINAL_CHARGES =  -0.0000

@<TRIPOS>MOLECULE
ZINC00014672
39    42    1     0     0    
SMALL
USER_CHARGES
****
****
@<TRIPOS>ATOM
1     C1       1.8480   -5.6089   -4.9793 C.ar    1  LIG  -0.1206  -0.1500 
2     C2       2.4865   -4.3786   -4.9461 C.ar    1  LIG  -0.1373  -0.1500 
3     C3       3.2804   -4.0322   -3.8491 C.ar    1  LIG  -0.1108  -0.1500 
4     C4       3.4621   -4.9032   -2.7455 C.ar    1  LIG  -0.0596   0.0000 
5     C5       2.8027   -6.1619   -2.8087 C.ar    1  LIG  -0.0090   0.0000 
6     C6       2.0065   -6.4947   -3.9176 C.ar    1  LIG  -0.1253  -0.1500 
7     C7       2.9472   -7.0830   -1.7655 C.ar    1  LIG  -0.1594  -0.1500 
8     C8       3.7375   -6.7855   -0.6643 C.ar    1  LIG  -0.0893  -0.1500 
9     C9       4.3886   -5.5574   -0.5871 C.ar    1  LIG  -0.2099  -0.1500 
10    C10      4.2604   -4.5869   -1.5990 C.ar    1  LIG   0.1592   0.1000 
11    N1       4.9365   -3.3700   -1.5162 N.pl3   1  LIG  -0.7355  -0.8691 
12    C11      5.8227   -3.0078   -0.4238 C.3     1  LIG   0.1497   0.5126 
13    C12      6.4693   -1.6788   -0.6964 C.ar    1  LIG   0.2256   0.1665 
14    C13      7.5564   -1.5612   -1.5284 C.ar    1  LIG   0.3608   0.1600 
15    N2       8.1271   -0.3699   -1.7967 N.ar    1  LIG  -0.6309  -0.6200 
16    C14      7.6113    0.7302   -1.2384 C.ar    1  LIG   0.6353   0.6200 
17    C15      6.5036    0.6192   -0.3991 C.ar    1  LIG   0.0197   0.3100 
18    N3       5.9335   -0.5798   -0.1310 N.ar    1  LIG  -0.5910  -0.6200 
19    C16      6.0297    1.8077    0.1436 C.ar    1  LIG   0.7189   0.4100 
20    N4       6.5863    3.0051   -0.1354 N.ar    1  LIG  -0.8516  -0.6200 
21    C17      7.6511    3.0195   -0.9514 C.ar    1  LIG   0.9556   0.7200 
22    N5       8.1738    1.9109   -1.5047 N.ar    1  LIG  -0.7775  -0.6200 
23    N6       8.2397    4.2349   -1.2399 N.pl3   1  LIG  -0.9578  -0.9000 
24    N7       4.8994    1.7921    0.9589 N.pl3   1  LIG  -0.9552  -0.9000 
25    H1       4.6670   -2.6320   -2.1543 H       1  LIG   0.4053   0.4000 
26    H2       7.8623    5.0798   -0.8361 H       1  LIG   0.4501   0.4000 
27    H3       9.0413    4.2675   -1.8528 H       1  LIG   0.4551   0.4000 
28    H4       4.6741    0.9417    1.4596 H       1  LIG   0.4585   0.4000 
29    H5       4.5813    2.6761    1.3339 H       1  LIG   0.4469   0.4000 
30    H6       1.2302   -5.8817   -5.8296 H       1  LIG   0.1323   0.1500 
31    H7       2.3713   -3.6829   -5.7724 H       1  LIG   0.1322   0.1500 
32    H8       3.7597   -3.0574   -3.8818 H       1  LIG   0.1296   0.1500 
33    H9       1.5001   -7.4572   -3.9656 H       1  LIG   0.1329   0.1500 
34    H10      2.4479   -8.0492   -1.8033 H       1  LIG   0.1329   0.1500 
35    H11      3.8486   -7.5102    0.1372 H       1  LIG   0.1302   0.1500 
36    H12      4.9949   -5.3705    0.2956 H       1  LIG   0.1315   0.1500 
37    H13      5.2580   -2.9443    0.5142 H       1  LIG   0.0479   0.0000 
38    H14      6.6105   -3.7594   -0.2914 H       1  LIG   0.0658   0.0000 
39    H15      8.0104   -2.4172   -2.0143 H       1  LIG   0.0445   0.1500 
@<TRIPOS>BOND
1     1     6     ar
2     1     2     ar
3     1     30    1
4     2     3     ar
5     2     31    1
6     3     4     ar
7     3     32    1
8     4     10    ar
9     4     5     ar
10    5     6     ar
11    5     7     ar
12    6     33    1
13    7     8     ar
14    7     34    1
15    8     9     ar
16    8     35    1
17    9     10    ar
18    9     36    1
19    10    11    1
20    11    12    1
21    11    25    1
22    12    13    1
23    12    37    1
24    12    38    1
25    13    18    ar
26    13    14    ar
27    14    15    ar
28    14    39    1
29    15    16    ar
30    16    22    ar
31    16    17    ar
32    17    18    ar
33    17    19    ar
34    19    20    ar
35    19    24    1
36    20    21    ar
37    21    22    ar
38    21    23    1
39    23    26    1
40    23    27    1
41    24    28    1
42    24    29    1
@<TRIPOS>SUBSTRUCTURE
1   LIG    1    
 
########## Number      : 806
########## Name        : ZINC00014709
########## Description : AM1BCC_CHARGES =   1.9999 ORIGINAL_CHARGES =   2.0000

@<TRIPOS>MOLECULE
ZINC00014709
24    24    1     0     0    
SMALL
USER_CHARGES
****
****
@<TRIPOS>ATOM
1     C1       5.5441   -9.8794   -0.1013 C.3     1  LIG  -0.0939   0.0000 
2     C2       6.3117   -8.5671   -0.2127 C.3     1  LIG  -0.0939   0.0000 
3     C3       5.3861   -7.4090   -0.5731 C.3     1  LIG  -0.1040   0.0000 
4     C4       4.2213   -7.2795    0.4207 C.3     1  LIG   0.1016   0.5030 
5     C5       3.4429   -8.6079    0.5290 C.3     1  LIG   0.1015   0.5030 
6     C6       4.3871   -9.7661    0.8869 C.3     1  LIG  -0.1039   0.0000 
7     H1       1.9491   -9.4149    1.7374 H       1  LIG   0.4985   0.4500 
8     H2       2.8099   -8.2283    2.4985 H       1  LIG   0.4721   0.4500 
9     H3       2.5897   -5.9645    0.6217 H       1  LIG   0.4545   0.4500 
10    H4       3.8495   -5.3333   -0.2252 H       1  LIG   0.4987   0.4500 
11    H5       6.2236  -10.6781    0.2168 H       1  LIG   0.1246   0.0000 
12    H6       5.1566  -10.1628   -1.0876 H       1  LIG   0.0804   0.0000 
13    H7       6.8125   -8.3529    0.7394 H       1  LIG   0.0805   0.0000 
14    H8       7.0960   -8.6622   -0.9721 H       1  LIG   0.1246   0.0000 
15    H9       5.9653   -6.4777   -0.5940 H       1  LIG   0.1027   0.0000 
16    H10      4.9983   -7.5628   -1.5887 H       1  LIG   0.0869   0.0000 
17    H11      4.6427   -7.0010    1.4016 H       1  LIG   0.1381   0.0000 
18    H12      2.9609   -8.8493   -0.4336 H       1  LIG   0.1380   0.0000 
19    H13      3.8310  -10.7114    0.9009 H       1  LIG   0.1027   0.0000 
20    H14      4.7918   -9.6225    1.8975 H       1  LIG   0.0869   0.0000 
21    N1       2.4130   -8.5068    1.5899 N.4     1  LIG  -0.8608  -0.8530 
22    H15      1.6652   -7.8412    1.3559 H       1  LIG   0.4537   0.4500 
23    N2       3.3227   -6.2030   -0.0586 N.4     1  LIG  -0.8610  -0.8530 
24    H16      2.8614   -6.4422   -0.9478 H       1  LIG   0.4714   0.4500 
@<TRIPOS>BOND
1     1     6     1
2     1     2     1
3     1     11    1
4     1     12    1
5     2     3     1
6     2     13    1
7     2     14    1
8     3     4     1
9     3     15    1
10    3     16    1
11    4     5     1
12    4     17    1
13    4     23    1
14    5     6     1
15    5     18    1
16    5     21    1
17    6     19    1
18    6     20    1
19    7     21    1
20    8     21    1
21    9     23    1
22    10    23    1
23    21    22    1
24    23    24    1
@<TRIPOS>SUBSTRUCTURE
1   LIG    1    
 
########## Number      : 807
########## Name        : ZINC00014894
########## Description : AM1BCC_CHARGES =  -0.0001 ORIGINAL_CHARGES =  -0.0000

@<TRIPOS>MOLECULE
ZINC00014894
27    27    1     0     0    
SMALL
USER_CHARGES
****
****
@<TRIPOS>ATOM
1     C1       4.2497   -3.8954    2.1809 C.3     1  LIG  -0.1987   0.0610 
2     C2       2.9352   -3.8114    1.4503 C.2     1  LIG   0.5854   0.4946 
3     O1       1.8729   -4.0692    2.0133 O.2     1  LIG  -0.5125  -0.5700 
4     C3       2.9697   -3.3817    0.0161 C.2     1  LIG  -0.2786   0.0288 
5     C4       2.3562   -4.1300   -0.9198 C.2     1  LIG   0.0066  -0.1784 
6     C5       1.6694   -5.4118   -0.7002 C.ar    1  LIG  -0.1235   0.0284 
7     C6       2.3689   -6.5443   -0.2594 C.ar    1  LIG  -0.0680  -0.1500 
8     C7       1.7022   -7.7569   -0.0735 C.ar    1  LIG  -0.2128  -0.1500 
9     C8       0.3369   -7.8371   -0.3376 C.ar    1  LIG   0.1386   0.0825 
10    C9      -0.3684   -6.7244   -0.7870 C.ar    1  LIG  -0.1544  -0.1500 
11    C10      0.2987   -5.5125   -0.9722 C.ar    1  LIG  -0.0681  -0.1500 
12    O2      -0.3462   -9.0079   -0.1668 O.3     1  LIG  -0.4929  -0.5325 
13    C11      3.6764   -2.1118   -0.3587 C.2     1  LIG   0.5765   0.4946 
14    O3       4.0517   -1.3378    0.5231 O.2     1  LIG  -0.5288  -0.5700 
15    C12      3.9141   -1.7839   -1.8116 C.3     1  LIG  -0.2016   0.0610 
16    H1       0.2744   -9.6850    0.1522 H       1  LIG   0.4217   0.4500 
17    H2       4.2754   -4.8210    2.7629 H       1  LIG   0.0668   0.0000 
18    H3       5.0887   -3.9180    1.4800 H       1  LIG   0.0513   0.0000 
19    H4       4.3531   -3.0344    2.8457 H       1  LIG   0.0920   0.0000 
20    H5       2.3281   -3.8146   -1.9597 H       1  LIG   0.1335   0.1500 
21    H6       3.4366   -6.4945   -0.0593 H       1  LIG   0.1350   0.1500 
22    H7       2.2566   -8.6242    0.2724 H       1  LIG   0.1377   0.1500 
23    H8      -1.4325   -6.7932   -0.9943 H       1  LIG   0.1551   0.1500 
24    H9      -0.2614   -4.6492   -1.3240 H       1  LIG   0.1399   0.1500 
25    H10      4.5953   -0.9299   -1.8802 H       1  LIG   0.0731   0.0000 
26    H11      4.3884   -2.6266   -2.3216 H       1  LIG   0.0604   0.0000 
27    H12      2.9716   -1.5150   -2.2949 H       1  LIG   0.0662   0.0000 
@<TRIPOS>BOND
1     1     2     1
2     1     17    1
3     1     18    1
4     1     19    1
5     2     3     2
6     2     4     1
7     4     5     2
8     4     13    1
9     5     6     1
10    5     20    1
11    6     11    ar
12    6     7     ar
13    7     8     ar
14    7     21    1
15    8     9     ar
16    8     22    1
17    9     10    ar
18    9     12    1
19    10    11    ar
20    10    23    1
21    11    24    1
22    12    16    1
23    13    14    2
24    13    15    1
25    15    25    1
26    15    26    1
27    15    27    1
@<TRIPOS>SUBSTRUCTURE
1   LIG    1    
 
########## Number      : 808
########## Name        : ZINC00014895
########## Description : AM1BCC_CHARGES =  -0.0000 ORIGINAL_CHARGES =   0.0000

@<TRIPOS>MOLECULE
ZINC00014895
30    30    1     0     0    
SMALL
USER_CHARGES
****
****
@<TRIPOS>ATOM
1     C1       7.4456   -6.6155   -1.1053 C.3     1  LIG  -0.2024   0.0610 
2     C2       6.0383   -7.0231   -0.7492 C.2     1  LIG   0.5814   0.4946 
3     O1       5.7190   -8.2111   -0.7221 O.2     1  LIG  -0.5395  -0.5700 
4     C3       5.0595   -5.9340   -0.4222 C.2     1  LIG  -0.2924   0.0288 
5     C4       3.7611   -6.2716   -0.3121 C.2     1  LIG   0.0161  -0.1784 
6     C5       2.6540   -5.3834    0.0680 C.ar    1  LIG  -0.1358   0.0284 
7     C6       2.6302   -4.7358    1.3077 C.ar    1  LIG  -0.0785  -0.1500 
8     C7       1.5570   -3.9093    1.6485 C.ar    1  LIG  -0.1576  -0.1500 
9     C8       0.4897   -3.7252    0.7640 C.ar    1  LIG   0.1383   0.0825 
10    C9       0.5044   -4.3827   -0.4676 C.ar    1  LIG  -0.2100  -0.1500 
11    C10      1.5786   -5.2110   -0.8105 C.ar    1  LIG  -0.0721  -0.1500 
12    O2      -0.4975   -2.8910    1.2164 O.3     1  LIG  -0.3225  -0.3625 
13    C11     -1.6018   -2.6733    0.3461 C.3     1  LIG   0.1119   0.2800 
14    C12      5.5154   -4.5321   -0.1997 C.2     1  LIG   0.5836   0.4946 
15    O3       6.3171   -4.2806    0.6981 O.2     1  LIG  -0.5311  -0.5700 
16    C13      5.0052   -3.4586   -1.1264 C.3     1  LIG  -0.1972   0.0610 
17    H1       7.9420   -7.4454   -1.6175 H       1  LIG   0.0707   0.0000 
18    H2       7.4391   -5.7625   -1.7890 H       1  LIG   0.0601   0.0000 
19    H3       8.0027   -6.3743   -0.1968 H       1  LIG   0.0853   0.0000 
20    H4       3.4428   -7.2951   -0.5042 H       1  LIG   0.1598   0.1500 
21    H5       3.4403   -4.8673    2.0213 H       1  LIG   0.1505   0.1500 
22    H6       1.5574   -3.4098    2.6145 H       1  LIG   0.1562   0.1500 
23    H7      -0.3032   -4.2757   -1.1851 H       1  LIG   0.1416   0.1500 
24    H8       1.5671   -5.7146   -1.7749 H       1  LIG   0.1384   0.1500 
25    H9      -2.2923   -1.9886    0.8480 H       1  LIG   0.0704   0.0000 
26    H10     -1.2815   -2.1980   -0.5870 H       1  LIG   0.0349   0.0000 
27    H11     -2.1410   -3.6063    0.1516 H       1  LIG   0.0362   0.0000 
28    H12      5.8574   -2.8991   -1.5225 H       1  LIG   0.0690   0.0000 
29    H13      4.4650   -3.8886   -1.9741 H       1  LIG   0.0580   0.0000 
30    H14      4.3424   -2.7850   -0.5780 H       1  LIG   0.0767   0.0000 
@<TRIPOS>BOND
1     1     2     1
2     1     17    1
3     1     18    1
4     1     19    1
5     2     3     2
6     2     4     1
7     4     5     2
8     4     14    1
9     5     6     1
10    5     20    1
11    6     11    ar
12    6     7     ar
13    7     8     ar
14    7     21    1
15    8     9     ar
16    8     22    1
17    9     10    ar
18    9     12    1
19    10    11    ar
20    10    23    1
21    11    24    1
22    12    13    1
23    13    25    1
24    13    26    1
25    13    27    1
26    14    15    2
27    14    16    1
28    16    28    1
29    16    29    1
30    16    30    1
@<TRIPOS>SUBSTRUCTURE
1   LIG    1    
 
########## Number      : 809
########## Name        : ZINC00014897
########## Description : AM1BCC_CHARGES =   0.0000 ORIGINAL_CHARGES =   0.0000

@<TRIPOS>MOLECULE
ZINC00014897
28    28    1     0     0    
SMALL
USER_CHARGES
****
****
@<TRIPOS>ATOM
1     C1       7.0692   -7.9812   -1.9553 C.3     1  LIG  -0.2030   0.0610 
2     C2       5.8496   -7.9353   -1.0700 C.2     1  LIG   0.5798   0.4946 
3     O1       5.3568   -8.9730   -0.6292 O.2     1  LIG  -0.5274  -0.5700 
4     C3       5.2627   -6.5892   -0.7626 C.2     1  LIG  -0.2657   0.0288 
5     C4       4.3070   -6.5231    0.1830 C.2     1  LIG  -0.0199  -0.1784 
6     C5       3.5550   -5.3263    0.5863 C.ar    1  LIG  -0.0452   0.0284 
7     C6       2.7525   -4.6284   -0.3278 C.ar    1  LIG  -0.1249  -0.1500 
8     C7       2.0327   -3.5021    0.0767 C.ar    1  LIG  -0.0668  -0.1500 
9     C8       2.1119   -3.0823    1.4073 C.ar    1  LIG  -0.1702   0.1330 
10    C9       2.8950   -3.7745    2.3352 C.ar    1  LIG  -0.0691  -0.1500 
11    C10      3.6111   -4.8993    1.9201 C.ar    1  LIG  -0.1252  -0.1500 
12    N1       1.3622   -1.9063    1.8352 N.pl3   1  LIG   0.3123   0.9070 
13    O2       1.1345   -1.7780    3.0458 O.2     1  LIG  -0.2049  -0.5200 
14    O3       0.9989   -1.1065    0.9620 O.3     1  LIG  -0.2025  -0.5200 
15    C11      5.7038   -5.3713   -1.5005 C.2     1  LIG   0.5762   0.4946 
16    O4       5.5643   -5.3061   -2.7204 O.2     1  LIG  -0.5188  -0.5700 
17    C12      6.3564   -4.2599   -0.7193 C.3     1  LIG  -0.1991   0.0610 
18    H1       7.5616   -8.9517   -1.8397 H       1  LIG   0.0749   0.0000 
19    H2       6.7740   -7.8550   -2.9998 H       1  LIG   0.0867   0.0000 
20    H3       7.7871   -7.2101   -1.6637 H       1  LIG   0.0624   0.0000 
21    H4       4.0151   -7.4178    0.7307 H       1  LIG   0.1690   0.1500 
22    H5       2.6765   -4.9564   -1.3624 H       1  LIG   0.1633   0.1500 
23    H6       1.4191   -2.9827   -0.6545 H       1  LIG   0.1773   0.1500 
24    H7       2.9679   -3.4613    3.3732 H       1  LIG   0.1754   0.1500 
25    H8       4.2186   -5.4351    2.6465 H       1  LIG   0.1541   0.1500 
26    H9       7.3068   -4.0033   -1.1959 H       1  LIG   0.0752   0.0000 
27    H10      5.7003   -3.3863   -0.7064 H       1  LIG   0.0762   0.0000 
28    H11      6.5701   -4.5682    0.3078 H       1  LIG   0.0599   0.0000 
@<TRIPOS>BOND
1     1     2     1
2     1     18    1
3     1     19    1
4     1     20    1
5     2     3     2
6     2     4     1
7     4     5     2
8     4     15    1
9     5     6     1
10    5     21    1
11    6     11    ar
12    6     7     ar
13    7     8     ar
14    7     22    1
15    8     9     ar
16    8     23    1
17    9     10    ar
18    9     12    1
19    10    11    ar
20    10    24    1
21    11    25    1
22    12    13    2
23    12    14    1
24    15    16    2
25    15    17    1
26    17    26    1
27    17    27    1
28    17    28    1
@<TRIPOS>SUBSTRUCTURE
1   LIG    1    
 
########## Number      : 810
########## Name        : ZINC00014898
########## Description : AM1BCC_CHARGES =   0.0001 ORIGINAL_CHARGES =   0.0000

@<TRIPOS>MOLECULE
ZINC00014898
27    27    1     0     0    
SMALL
USER_CHARGES
****
****
@<TRIPOS>ATOM
1     C1       7.1157   -6.6356   -2.0108 C.3     1  LIG  -0.2019   0.0610 
2     C2       5.9025   -7.0142   -1.1995 C.2     1  LIG   0.5810   0.4946 
3     O1       5.7075   -8.1847   -0.8742 O.2     1  LIG  -0.5317  -0.5700 
4     C3       4.9611   -5.9160   -0.8009 C.2     1  LIG  -0.2752   0.0288 
5     C4       3.7806   -6.2685   -0.2586 C.2     1  LIG  -0.0082  -0.1784 
6     C5       2.7500   -5.3597    0.2627 C.ar    1  LIG  -0.0693   0.0284 
7     C6       3.0186   -4.4837    1.3226 C.ar    1  LIG  -0.1169  -0.1500 
8     C7       2.0186   -3.6399    1.8123 C.ar    1  LIG  -0.0904  -0.1500 
9     C8       0.7393   -3.6727    1.2524 C.ar    1  LIG  -0.0072   0.0730 
10    C9       0.4610   -4.5543    0.2051 C.ar    1  LIG  -0.0929  -0.1500 
11    C10      1.4615   -5.3979   -0.2840 C.ar    1  LIG  -0.1184  -0.1500 
12    C11     -0.2851   -2.8084    1.7535 C.1     1  LIG   0.2282   0.4841 
13    N1      -1.1160   -2.1073    2.1596 N.1     1  LIG  -0.3521  -0.5571 
14    C12      5.3339   -4.4831   -0.9739 C.2     1  LIG   0.5791   0.4946 
15    O2       6.3234   -4.0306   -0.4011 O.2     1  LIG  -0.5228  -0.5700 
16    C13      4.4970   -3.6334   -1.8952 C.3     1  LIG  -0.1980   0.0610 
17    H1       7.5250   -7.5323   -2.4861 H       1  LIG   0.0729   0.0000 
18    H2       6.8454   -5.9351   -2.8054 H       1  LIG   0.0601   0.0000 
19    H3       7.8767   -6.2005   -1.3586 H       1  LIG   0.0863   0.0000 
20    H4       3.5132   -7.3197   -0.1636 H       1  LIG   0.1654   0.1500 
21    H5       4.0052   -4.4501    1.7797 H       1  LIG   0.1558   0.1500 
22    H6       2.2503   -2.9644    2.6327 H       1  LIG   0.1522   0.1500 
23    H7      -0.5312   -4.5961   -0.2387 H       1  LIG   0.1502   0.1500 
24    H8       1.2256   -6.0793   -1.0986 H       1  LIG   0.1459   0.1500 
25    H9       5.1553   -3.1358   -2.6129 H       1  LIG   0.0726   0.0000 
26    H10      3.7854   -4.2416   -2.4602 H       1  LIG   0.0585   0.0000 
27    H11      3.9525   -2.8868   -1.3120 H       1  LIG   0.0769   0.0000 
@<TRIPOS>BOND
1     1     2     1
2     1     17    1
3     1     18    1
4     1     19    1
5     2     3     2
6     2     4     1
7     4     5     2
8     4     14    1
9     5     6     1
10    5     20    1
11    6     11    ar
12    6     7     ar
13    7     8     ar
14    7     21    1
15    8     9     ar
16    8     22    1
17    9     10    ar
18    9     12    1
19    10    11    ar
20    10    23    1
21    11    24    1
22    12    13    3
23    14    15    2
24    14    16    1
25    16    25    1
26    16    26    1
27    16    27    1
@<TRIPOS>SUBSTRUCTURE
1   LIG    1    
 
########## Number      : 811
########## Name        : ZINC00014900
########## Description : AM1BCC_CHARGES =  -0.0001 ORIGINAL_CHARGES =   0.0000

@<TRIPOS>MOLECULE
ZINC00014900
28    28    1     0     0    
SMALL
USER_CHARGES
****
****
@<TRIPOS>ATOM
1     C1       6.3303   -7.7700   -0.6383 C.3     1  LIG  -0.2009   0.0610 
2     C2       5.8544   -6.7009    0.3099 C.2     1  LIG   0.5809   0.4946 
3     O1       5.1690   -6.9770    1.2928 O.2     1  LIG  -0.5088  -0.5700 
4     C3       6.2640   -5.2895    0.0203 C.2     1  LIG  -0.2578   0.0288 
5     C4       5.3305   -4.3206   -0.0239 C.2     1  LIG  -0.0183  -0.1784 
6     C5       3.8802   -4.5049    0.1342 C.ar    1  LIG  -0.0863   0.0284 
7     C6       3.1361   -5.2176   -0.8172 C.ar    1  LIG  -0.0740  -0.1500 
8     C7       1.7574   -5.3787   -0.6607 C.ar    1  LIG  -0.1347  -0.1500 
9     C8       1.1055   -4.8267    0.4411 C.ar    1  LIG  -0.0591  -0.1500 
10    C9       1.8488   -4.1084    1.3821 C.ar    1  LIG  -0.1708   0.1330 
11    C10      3.2305   -3.9380    1.2377 C.ar    1  LIG  -0.0442  -0.1500 
12    N1       1.1717   -3.5249    2.5344 N.pl3   1  LIG   0.3136   0.9070 
13    O2       1.7235   -2.5742    3.1051 O.2     1  LIG  -0.2054  -0.5200 
14    O3       0.0851   -4.0145    2.8717 O.3     1  LIG  -0.2034  -0.5200 
15    C11      7.7130   -4.9695   -0.2043 C.2     1  LIG   0.5747   0.4946 
16    O4       8.5718   -5.8172    0.0431 O.2     1  LIG  -0.5202  -0.5700 
17    C12      8.1115   -3.6095   -0.7205 C.3     1  LIG  -0.2012   0.0610 
18    H1       5.5009   -8.4493   -0.8547 H       1  LIG   0.0698   0.0000 
19    H2       6.6626   -7.3364   -1.5856 H       1  LIG   0.0527   0.0000 
20    H3       7.1545   -8.3227   -0.1809 H       1  LIG   0.0961   0.0000 
21    H4       5.6052   -3.2819   -0.1887 H       1  LIG   0.1432   0.1500 
22    H5       3.6210   -5.6524   -1.6883 H       1  LIG   0.1451   0.1500 
23    H6       1.1908   -5.9351   -1.4026 H       1  LIG   0.1521   0.1500 
24    H7       0.0317   -4.9615    0.5379 H       1  LIG   0.1736   0.1500 
25    H8       3.8084   -3.3846    1.9746 H       1  LIG   0.1753   0.1500 
26    H9       9.1707   -3.6262   -0.9962 H       1  LIG   0.0769   0.0000 
27    H10      7.5404   -3.3583   -1.6181 H       1  LIG   0.0628   0.0000 
28    H11      7.9678   -2.8558    0.0577 H       1  LIG   0.0682   0.0000 
@<TRIPOS>BOND
1     1     2     1
2     1     18    1
3     1     19    1
4     1     20    1
5     2     3     2
6     2     4     1
7     4     5     2
8     4     15    1
9     5     6     1
10    5     21    1
11    6     11    ar
12    6     7     ar
13    7     8     ar
14    7     22    1
15    8     9     ar
16    8     23    1
17    9     10    ar
18    9     24    1
19    10    11    ar
20    10    12    1
21    11    25    1
22    12    13    2
23    12    14    1
24    15    16    2
25    15    17    1
26    17    26    1
27    17    27    1
28    17    28    1
@<TRIPOS>SUBSTRUCTURE
1   LIG    1    
 
########## Number      : 812
########## Name        : ZINC00015171
########## Description : AM1BCC_CHARGES =  -1.0001 ORIGINAL_CHARGES =  -1.0000

@<TRIPOS>MOLECULE
ZINC00015171
20    21    1     0     0    
SMALL
USER_CHARGES
****
****
@<TRIPOS>ATOM
1     C1       3.9005   -5.8406   -1.3277 C.ar    1  LIG  -0.0933  -0.1500 
2     C2       3.4914   -4.5046   -1.2862 C.ar    1  LIG  -0.1693  -0.1500 
3     C3       2.4447   -4.1302   -0.4475 C.ar    1  LIG  -0.0129   0.1170 
4     C4       1.8106   -5.0814    0.3442 C.ar    1  LIG  -0.0105   0.1170 
5     C5       2.2173   -6.4177    0.3050 C.ar    1  LIG  -0.1164  -0.1500 
6     C6       3.2713   -6.8161   -0.5345 C.ar    1  LIG  -0.1161  -0.1790 
7     C7       3.7177   -8.2575   -0.5837 C.2     1  LIG   0.9115   0.9790 
8     O1       4.6771   -8.5434   -1.3663 O.co2   1  LIG  -0.8194  -0.9000 
9     N1       0.7598   -4.6928    1.1832 N.am    1  LIG  -0.4398  -0.5470 
10    C8       0.3065   -3.3950    1.2731 C.2     1  LIG   0.6314   0.6300 
11    O2      -0.6102   -3.0299    1.9986 O.2     1  LIG  -0.6190  -0.5700 
12    C9       0.9985   -2.3585    0.4095 C.2     1  LIG   0.6306   0.6300 
13    O3       0.6133   -1.1975    0.4718 O.2     1  LIG  -0.6208  -0.5700 
14    N2       2.0261   -2.7960   -0.3971 N.am    1  LIG  -0.4436  -0.5470 
15    H1       0.3082   -5.4002    1.7542 H       1  LIG   0.3353   0.3700 
16    H2       2.5005   -2.1155   -0.9819 H       1  LIG   0.3262   0.3700 
17    H3       4.7201   -6.1113   -1.9899 H       1  LIG   0.1634   0.1500 
18    H4       3.9971   -3.7735   -1.9109 H       1  LIG   0.1182   0.1500 
19    H5       1.7114   -7.1503    0.9302 H       1  LIG   0.1661   0.1500 
20    O4       3.1021   -9.0827    0.1613 O.co2   1  LIG  -0.8217  -0.9000 
@<TRIPOS>BOND
1     1     6     ar
2     1     2     ar
3     1     17    1
4     2     3     ar
5     2     18    1
6     3     14    1
7     3     4     ar
8     4     5     ar
9     4     9     1
10    5     6     ar
11    5     19    1
12    6     7     1
13    7     8     2
14    7     20    1
15    9     10    am
16    9     15    1
17    10    11    2
18    10    12    1
19    12    13    2
20    12    14    am
21    14    16    1
@<TRIPOS>SUBSTRUCTURE
1   LIG    1    
 
########## Number      : 813
########## Name        : ZINC00015173
########## Description : AM1BCC_CHARGES =   0.0001 ORIGINAL_CHARGES =   0.0000

@<TRIPOS>MOLECULE
ZINC00015173
24    25    1     0     0    
SMALL
USER_CHARGES
****
****
@<TRIPOS>ATOM
1     C1       6.0068   -3.2714   -0.5846 C.3     1  LIG   0.0687   0.3001 
2     N1       4.9001   -3.9063    0.1247 N.am    1  LIG  -0.3583  -0.4771 
3     C2       4.9215   -3.9745    1.5463 C.ar    1  LIG   0.0313   0.1170 
4     C3       5.9946   -3.4389    2.2853 C.ar    1  LIG  -0.1418  -0.1500 
5     C4       6.0179   -3.5045    3.6780 C.ar    1  LIG  -0.1243  -0.1500 
6     C5       4.9694   -4.1063    4.3555 C.ar    1  LIG  -0.1243  -0.1500 
7     C6       3.8994   -4.6415    3.6393 C.ar    1  LIG  -0.1418  -0.1500 
8     C7       3.8600   -4.5838    2.2323 C.ar    1  LIG   0.0314   0.1170 
9     N2       2.7666   -5.1310    1.5035 N.am    1  LIG  -0.3583  -0.4771 
10    C8       2.7118   -5.0826    0.1166 C.2     1  LIG   0.6347   0.6300 
11    O1       1.8038   -5.5319   -0.5782 O.2     1  LIG  -0.5695  -0.5700 
12    C9       3.8503   -4.4291   -0.6192 C.2     1  LIG   0.6348   0.6300 
13    O2       3.7630   -4.4073   -1.8442 O.2     1  LIG  -0.5696  -0.5700 
14    C10      1.6645   -5.7639    2.2216 C.3     1  LIG   0.0687   0.3001 
15    H1       6.0840   -2.2234   -0.2784 H       1  LIG   0.0445   0.0000 
16    H2       6.9359   -3.8077   -0.3672 H       1  LIG   0.0441   0.0000 
17    H3       5.8543   -3.2927   -1.6676 H       1  LIG   0.0877   0.0000 
18    H4       6.8391   -2.9576    1.8002 H       1  LIG   0.1429   0.1500 
19    H5       6.8550   -3.0853    4.2287 H       1  LIG   0.1400   0.1500 
20    H6       4.9802   -4.1614    5.4403 H       1  LIG   0.1400   0.1500 
21    H7       3.1020   -5.1027    4.2152 H       1  LIG   0.1429   0.1500 
22    H8       2.0431   -6.6161    2.7946 H       1  LIG   0.0443   0.0000 
23    H9       1.1912   -5.0318    2.8835 H       1  LIG   0.0444   0.0000 
24    H10      0.8994   -6.1368    1.5344 H       1  LIG   0.0876   0.0000 
@<TRIPOS>BOND
1     1     2     1
2     1     15    1
3     1     16    1
4     1     17    1
5     2     12    am
6     2     3     1
7     3     8     ar
8     3     4     ar
9     4     5     ar
10    4     18    1
11    5     6     ar
12    5     19    1
13    6     7     ar
14    6     20    1
15    7     8     ar
16    7     21    1
17    8     9     1
18    9     10    am
19    9     14    1
20    10    11    2
21    10    12    1
22    12    13    2
23    14    22    1
24    14    23    1
25    14    24    1
@<TRIPOS>SUBSTRUCTURE
1   LIG    1    
 
########## Number      : 814
########## Name        : ZINC00015629
########## Description : AM1BCC_CHARGES =   0.0000 ORIGINAL_CHARGES =  -0.0000

@<TRIPOS>MOLECULE
ZINC00015629
26    27    1     0     0    
SMALL
USER_CHARGES
****
****
@<TRIPOS>ATOM
1     C1       4.7515   -6.9838   -0.6828 C.2     1  LIG  -0.4162  -0.1356 
2     C2       4.1921   -5.7938   -0.8926 C.2     1  LIG   0.0676  -0.0410 
3     N1       2.9685   -5.4568   -0.3551 N.am    1  LIG  -0.3976  -0.4691 
4     C3       2.2561   -6.3820    0.4353 C.2     1  LIG   0.8427   0.8410 
5     O1       1.1550   -6.1113    0.9170 O.2     1  LIG  -0.6235  -0.5700 
6     N2       2.8239   -7.6212    0.6660 N.2     1  LIG  -0.7200  -0.6610 
7     C4       3.9853   -7.9323    0.1603 C.2     1  LIG   0.7518   0.4856 
8     N3       4.5234   -9.1706    0.4077 N.pl3   1  LIG  -0.9102  -0.8500 
9     C5       2.4137   -4.1256   -0.6534 C.3     1  LIG   0.3119   0.5801 
10    C6       1.1799   -4.2003   -1.5592 C.3     1  LIG  -0.0387   0.2300 
11    S1       0.4397   -2.5743   -1.3436 S.3     1  LIG  -0.3141  -0.4600 
12    C7       1.2583   -2.3300    0.2450 C.3     1  LIG   0.1941   0.5100 
13    O2       2.0423   -3.4830    0.5655 O.3     1  LIG  -0.4089  -0.5600 
14    C8       0.2458   -2.1179    1.3764 C.3     1  LIG   0.1025   0.2800 
15    O3      -0.4194   -0.8714    1.2296 O.3     1  LIG  -0.5907  -0.6800 
16    H1       4.0218   -9.8397    0.9810 H       1  LIG   0.4428   0.4000 
17    H2       5.4224   -9.4557    0.0362 H       1  LIG   0.4292   0.4000 
18    H3      -1.0501   -0.7962    1.9660 H       1  LIG   0.4052   0.4000 
19    H4       5.7103   -7.2673   -1.0949 H       1  LIG   0.1572   0.1500 
20    H5       4.6939   -5.0498   -1.5015 H       1  LIG   0.1582   0.1500 
21    H6       3.1838   -3.5317   -1.1770 H       1  LIG   0.0789   0.0000 
22    H7       1.4432   -4.4029   -2.6011 H       1  LIG   0.0865   0.0000 
23    H8       0.4549   -4.9496   -1.2310 H       1  LIG   0.1213   0.0000 
24    H9       1.9047   -1.4360    0.2395 H       1  LIG   0.1073   0.0000 
25    H10     -0.4938   -2.9266    1.4110 H       1  LIG   0.0813   0.0000 
26    H11      0.7637   -2.1182    2.3425 H       1  LIG   0.0814   0.0000 
@<TRIPOS>BOND
1     1     7     1
2     1     2     2
3     1     19    1
4     2     3     1
5     2     20    1
6     3     4     am
7     3     9     1
8     4     5     2
9     4     6     1
10    6     7     2
11    7     8     1
12    8     16    1
13    8     17    1
14    9     13    1
15    9     10    1
16    9     21    1
17    10    11    1
18    10    22    1
19    10    23    1
20    11    12    1
21    12    13    1
22    12    14    1
23    12    24    1
24    14    15    1
25    14    25    1
26    14    26    1
27    15    18    1
@<TRIPOS>SUBSTRUCTURE
1   LIG    1    
 
########## Number      : 815
########## Name        : ZINC00015630
########## Description : AM1BCC_CHARGES =   0.0004 ORIGINAL_CHARGES =   0.0000

@<TRIPOS>MOLECULE
ZINC00015630
36    39    1     0     0    
SMALL
USER_CHARGES
****
****
@<TRIPOS>ATOM
1     C1       5.7001  -12.1047   -0.3320 C.3     1  LIG   0.0781   0.3001 
2     N1       5.1793  -10.9336    0.3329 N.am    1  LIG  -0.5714  -0.7301 
3     C2       5.9738  -10.1040    1.1022 C.2     1  LIG   0.6642   0.6156 
4     O1       7.1723  -10.2567    1.3175 O.2     1  LIG  -0.5860  -0.5700 
5     C3       5.2239   -8.9679    1.7124 C.2     1  LIG  -0.0500  -0.0140 
6     C4       4.6749   -8.1011    0.8582 C.2     1  LIG  -0.2063  -0.1356 
7     C5       3.9639   -6.8898    1.3263 C.2     1  LIG   0.5372   0.4956 
8     N2       3.4248   -6.1438    0.4076 N.2     1  LIG  -0.6228  -0.6290 
9     C6       2.7412   -4.9914    0.7950 C.ar    1  LIG   0.1908   0.1790 
10    C7       2.0739   -4.2363   -0.1758 C.ar    1  LIG  -0.1241  -0.1500 
11    C8       1.3900   -3.0721    0.1768 C.ar    1  LIG  -0.0908  -0.1500 
12    C9       1.3703   -2.6525    1.5047 C.ar    1  LIG  -0.1547  -0.1500 
13    C10      2.0337   -3.3969    2.4794 C.ar    1  LIG  -0.0562  -0.1500 
14    C11      2.7160   -4.5662    2.1191 C.ar    1  LIG  -0.1982   0.0862 
15    C12      3.4306   -5.3705    3.1330 C.2     1  LIG   0.7181   0.5438 
16    O2       3.5736   -4.8542    4.2379 O.2     1  LIG  -0.6065  -0.5700 
17    N3       3.9318   -6.6141    2.6958 N.am    1  LIG  -0.2847  -0.2370 
18    C13      4.4737   -7.5801    3.6369 C.ar    1  LIG   0.0806   0.1170 
19    C14      5.1230   -8.7375    3.1555 C.ar    1  LIG  -0.0932   0.0284 
20    C15      5.6419   -9.6849    4.0597 C.ar    1  LIG  -0.0831  -0.1500 
21    C16      5.5227   -9.5059    5.4337 C.ar    1  LIG  -0.1449  -0.1500 
22    C17      4.8672   -8.3869    5.9190 C.ar    1  LIG  -0.0946  -0.1500 
23    C18      4.3423   -7.4418    5.0322 C.ar    1  LIG  -0.1465  -0.1500 
24    H1       4.1829  -10.7528    0.2593 H       1  LIG   0.3165   0.3700 
25    H2       5.1335  -12.2604   -1.2530 H       1  LIG   0.0380   0.0000 
26    H3       6.7613  -11.9799   -0.5620 H       1  LIG   0.0756   0.0000 
27    H4       5.5667  -12.9634    0.3308 H       1  LIG   0.0282   0.0000 
28    H5       4.7468   -8.2302   -0.2182 H       1  LIG   0.1751   0.1500 
29    H6       2.0860   -4.5536   -1.2157 H       1  LIG   0.1540   0.1500 
30    H7       0.8749   -2.4932   -0.5845 H       1  LIG   0.1384   0.1500 
31    H8       0.8391   -1.7461    1.7809 H       1  LIG   0.1410   0.1500 
32    H9       2.0073   -3.0556    3.5109 H       1  LIG   0.1588   0.1500 
33    H10      6.1403  -10.5859    3.7100 H       1  LIG   0.1585   0.1500 
34    H11      5.9267  -10.2451    6.1187 H       1  LIG   0.1425   0.1500 
35    H12      4.7492   -8.2474    6.9901 H       1  LIG   0.1414   0.1500 
36    H13      3.8052   -6.6206    5.4918 H       1  LIG   0.1774   0.1500 
@<TRIPOS>BOND
1     1     2     1
2     1     25    1
3     1     26    1
4     1     27    1
5     2     3     am
6     2     24    1
7     3     4     2
8     3     5     1
9     5     19    1
10    5     6     2
11    6     7     1
12    6     28    1
13    7     17    1
14    7     8     2
15    8     9     1
16    9     14    ar
17    9     10    ar
18    10    11    ar
19    10    29    1
20    11    12    ar
21    11    30    1
22    12    13    ar
23    12    31    1
24    13    14    ar
25    13    32    1
26    14    15    1
27    15    16    2
28    15    17    am
29    17    18    1
30    18    23    ar
31    18    19    ar
32    19    20    ar
33    20    21    ar
34    20    33    1
35    21    22    ar
36    21    34    1
37    22    23    ar
38    22    35    1
39    23    36    1
@<TRIPOS>SUBSTRUCTURE
1   LIG    1    
 
########## Number      : 816
########## Name        : ZINC00015631
########## Description : AM1BCC_CHARGES =   0.0002 ORIGINAL_CHARGES =   0.0000

@<TRIPOS>MOLECULE
ZINC00015631
35    37    1     0     0    
SMALL
USER_CHARGES
****
****
@<TRIPOS>ATOM
1     C1       2.5382    6.8776   -5.7878 C.3     1  LIG   0.1094   0.2800 
2     O1       1.3322    6.1167   -5.8097 O.3     1  LIG  -0.3169  -0.3567 
3     C2       1.4418    4.9954   -5.0100 C.2     1  LIG  -0.0805   0.0911 
4     C3       2.1752    3.8179   -5.5418 C.2     1  LIG   0.6008   0.4694 
5     O2       2.6624    3.8134   -6.6655 O.2     1  LIG  -0.5819  -0.5700 
6     C4       2.2855    2.6444   -4.6549 C.ar    1  LIG  -0.3352   0.0862 
7     C5       2.9929    1.4903   -5.0182 C.ar    1  LIG   0.2680   0.0825 
8     C6       3.0708    0.4042   -4.1448 C.ar    1  LIG  -0.2987  -0.1500 
9     C7       2.4368    0.4756   -2.9069 C.ar    1  LIG   0.2176   0.0825 
10    C8       1.7292    1.6144   -2.5332 C.ar    1  LIG  -0.2336  -0.1500 
11    C9       1.6557    2.6980   -3.4109 C.ar    1  LIG   0.2123   0.0825 
12    O3       0.9393    3.7846   -2.9797 O.3     1  LIG  -0.2117  -0.1592 
13    C10      0.8516    4.8922   -3.8044 C.2     1  LIG   0.1765   0.0483 
14    C11      0.0641    5.9886   -3.2108 C.ar    1  LIG  -0.0709   0.0284 
15    C12      0.4178    6.4970   -1.9499 C.ar    1  LIG  -0.0897  -0.1500 
16    C13     -0.3205    7.5286   -1.3635 C.ar    1  LIG  -0.1806  -0.1500 
17    C14     -1.4211    8.0520   -2.0354 C.ar    1  LIG   0.0605   0.0825 
18    C15     -1.7844    7.5492   -3.2813 C.ar    1  LIG   0.1017   0.0825 
19    C16     -1.0527    6.5211   -3.8717 C.ar    1  LIG  -0.0839  -0.1500 
20    O4      -2.8651    8.0470   -3.9541 O.3     1  LIG  -0.4889  -0.5325 
21    O5      -2.1648    9.0609   -1.4908 O.3     1  LIG  -0.5129  -0.5325 
22    O6       2.4907   -0.5675   -2.0262 O.3     1  LIG  -0.4848  -0.5325 
23    O7       3.6385    1.3514   -6.2167 O.3     1  LIG  -0.4954  -0.5325 
24    H1      -3.2504    8.7490   -3.3995 H       1  LIG   0.4377   0.4500 
25    H2      -1.7837    9.2948   -0.6269 H       1  LIG   0.4327   0.4500 
26    H3       3.0139   -1.2841   -2.4245 H       1  LIG   0.4306   0.4500 
27    H4       3.5044    2.1603   -6.7425 H       1  LIG   0.4679   0.4500 
28    H5       2.3745    7.7835   -6.3788 H       1  LIG   0.0643   0.0000 
29    H6       2.7942    7.1795   -4.7662 H       1  LIG   0.0259   0.0000 
30    H7       3.3684    6.3245   -6.2383 H       1  LIG   0.0578   0.0000 
31    H8       3.6222   -0.4859   -4.4350 H       1  LIG   0.1612   0.1500 
32    H9       1.2372    1.6583   -1.5651 H       1  LIG   0.1750   0.1500 
33    H10      1.2765    6.0969   -1.4148 H       1  LIG   0.1482   0.1500 
34    H11     -0.0263    7.9089   -0.3897 H       1  LIG   0.1406   0.1500 
35    H12     -1.3587    6.1366   -4.8419 H       1  LIG   0.1771   0.1500 
@<TRIPOS>BOND
1     1     2     1
2     1     28    1
3     1     29    1
4     1     30    1
5     2     3     1
6     3     13    2
7     3     4     1
8     4     5     2
9     4     6     1
10    6     11    ar
11    6     7     ar
12    7     8     ar
13    7     23    1
14    8     9     ar
15    8     31    1
16    9     10    ar
17    9     22    1
18    10    11    ar
19    10    32    1
20    11    12    1
21    12    13    1
22    13    14    1
23    14    19    ar
24    14    15    ar
25    15    16    ar
26    15    33    1
27    16    17    ar
28    16    34    1
29    17    18    ar
30    17    21    1
31    18    19    ar
32    18    20    1
33    19    35    1
34    20    24    1
35    21    25    1
36    22    26    1
37    23    27    1
@<TRIPOS>SUBSTRUCTURE
1   LIG    1    
 
########## Number      : 817
########## Name        : ZINC00015783
########## Description : AM1BCC_CHARGES =  -1.0002 ORIGINAL_CHARGES =  -1.0000

@<TRIPOS>MOLECULE
ZINC00015783
47    49    1     0     0    
SMALL
USER_CHARGES
****
****
@<TRIPOS>ATOM
1     C1       5.9349   -0.6352   -6.0959 C.3     1  LIG  -0.0328   0.1382 
2     C2       5.8473   -1.1349   -4.6750 C.2     1  LIG  -0.1773  -0.2764 
3     C3       6.0107   -2.4349   -4.3511 C.2     1  LIG  -0.1231  -0.3882 
4     C4       6.0055   -2.9588   -2.9425 C.3     1  LIG  -0.0420   0.1382 
5     C5       5.8874   -1.8760   -1.8647 C.3     1  LIG  -0.0725   0.0000 
6     C6       4.9701   -0.7006   -2.3024 C.3     1  LIG  -0.0024   0.1382 
7     C7       5.6827   -0.0888   -3.5643 C.3     1  LIG  -0.0030   0.1382 
8     C8       4.9102    1.1618   -4.0233 C.3     1  LIG  -0.0732   0.0000 
9     C9       4.9659    2.2280   -2.9271 C.3     1  LIG  -0.0391   0.1382 
10    C10      4.8678    1.7003   -1.5152 C.2     1  LIG  -0.1567  -0.1238 
11    C11      4.8486    0.3871   -1.2126 C.2     1  LIG  -0.0940  -0.1238 
12    C12      4.5995   -0.0029    0.2064 C.2     1  LIG   0.5508   0.5412 
13    O1       4.3198   -1.1470    0.5485 O.2     1  LIG  -0.5009  -0.5700 
14    C13      4.6707    1.0439    1.2431 C.2     1  LIG  -0.1954  -0.1356 
15    C14      4.7618    2.3479    0.9635 C.2     1  LIG  -0.1350  -0.1238 
16    C15      4.7804    2.7616   -0.4668 C.2     1  LIG   0.5576   0.5412 
17    O2       4.7474    3.9496   -0.7788 O.2     1  LIG  -0.5272  -0.5700 
18    C16      4.8014    3.4596    2.0021 C.3     1  LIG  -0.0357   0.1382 
19    C17      4.2108    3.0886    3.3688 C.3     1  LIG  -0.0910   0.0000 
20    C18      6.2360    3.9658    2.1836 C.3     1  LIG  -0.0848   0.0000 
21    C19      3.5353   -1.2206   -2.5855 C.3     1  LIG  -0.0900   0.0000 
22    C20      6.2034   -3.5052   -5.4398 C.2     1  LIG   0.9050   1.0500 
23    O3       7.4015   -3.8592   -5.6314 O.co2   1  LIG  -0.8314  -0.9000 
24    H1       6.2264   -1.4053   -6.8150 H       1  LIG   0.0777   0.0000 
25    H2       4.9673   -0.2411   -6.4224 H       1  LIG   0.0102   0.0000 
26    H3       6.6870    0.1574   -6.1709 H       1  LIG   0.0054   0.0000 
27    H4       5.1635   -3.6553   -2.8388 H       1  LIG   0.0527   0.0000 
28    H5       6.9162   -3.5410   -2.7575 H       1  LIG   0.0662   0.0000 
29    H6       5.5380   -2.3710   -0.9549 H       1  LIG   0.0437   0.0000 
30    H7       6.8898   -1.4902   -1.6316 H       1  LIG   0.0282   0.0000 
31    H8       6.6914    0.2875   -3.2992 H       1  LIG   0.0388   0.0000 
32    H9       5.3440    1.6019   -4.9282 H       1  LIG   0.0498   0.0000 
33    H10      3.8692    0.9195   -4.2666 H       1  LIG   0.0490   0.0000 
34    H11      5.9156    2.7715   -3.0200 H       1  LIG   0.0517   0.0000 
35    H12      4.1646    2.9530   -3.1161 H       1  LIG   0.0585   0.0000 
36    H13      4.6239    0.6820    2.2645 H       1  LIG   0.1509   0.1500 
37    H14      4.1906    4.2937    1.6318 H       1  LIG   0.0777   0.0000 
38    H15      4.1610    3.9724    4.0148 H       1  LIG   0.0329   0.0000 
39    H16      3.1924    2.6983    3.2658 H       1  LIG   0.0404   0.0000 
40    H17      4.8185    2.3392    3.8875 H       1  LIG   0.0337   0.0000 
41    H18      6.2646    4.8039    2.8885 H       1  LIG   0.0319   0.0000 
42    H19      6.8907    3.1774    2.5721 H       1  LIG   0.0359   0.0000 
43    H20      6.6601    4.3178    1.2371 H       1  LIG   0.0462   0.0000 
44    H21      3.1615   -1.8216   -1.7485 H       1  LIG   0.0394   0.0000 
45    H22      2.8256   -0.3972   -2.7262 H       1  LIG   0.0193   0.0000 
46    H23      3.4732   -1.8476   -3.4793 H       1  LIG   0.0843   0.0000 
47    O4       5.1379   -3.9034   -5.9912 O.co2   1  LIG  -0.8306  -0.9000 
@<TRIPOS>BOND
1     1     2     1
2     1     24    1
3     1     25    1
4     1     26    1
5     2     7     1
6     2     3     2
7     3     4     1
8     3     22    1
9     4     5     1
10    4     27    1
11    4     28    1
12    5     6     1
13    5     29    1
14    5     30    1
15    6     11    1
16    6     7     1
17    6     21    1
18    7     8     1
19    7     31    1
20    8     9     1
21    8     32    1
22    8     33    1
23    9     10    1
24    9     34    1
25    9     35    1
26    10    16    1
27    10    11    2
28    11    12    1
29    12    13    2
30    12    14    1
31    14    15    2
32    14    36    1
33    15    16    1
34    15    18    1
35    16    17    2
36    18    19    1
37    18    20    1
38    18    37    1
39    19    38    1
40    19    39    1
41    19    40    1
42    20    41    1
43    20    42    1
44    20    43    1
45    21    44    1
46    21    45    1
47    21    46    1
48    22    23    2
49    22    47    1
@<TRIPOS>SUBSTRUCTURE
1   LIG    1    
 
########## Number      : 818
########## Name        : ZINC00015795
########## Description : AM1BCC_CHARGES =  -0.0001 ORIGINAL_CHARGES =   0.0000

@<TRIPOS>MOLECULE
ZINC00015795
23    22    1     0     0    
SMALL
USER_CHARGES
****
****
@<TRIPOS>ATOM
1     C1       7.1077   -8.4742   -0.6761 C.3     1  LIG  -0.0947   0.0000 
2     C2       5.7279   -8.2686   -0.0765 C.3     1  LIG   0.1702   0.2700 
3     N1       4.7436   -9.1742   -0.6590 N.pl3   1  LIG  -0.6486  -0.6940 
4     C3       4.4905  -10.4612   -0.0200 C.3     1  LIG   0.1772   0.2700 
5     C4       3.3503  -10.3810    0.9797 C.3     1  LIG  -0.1293   0.0000 
6     N2       4.0371   -8.7958   -1.8465 N.pl3   1  LIG   0.8154   0.9940 
7     N3       3.1618   -9.6059   -2.3038 N.2     1  LIG  -0.4334  -0.2700 
8     O1       2.5870   -9.0541   -3.4609 O.3     1  LIG  -0.1587  -0.2170 
9     C5       1.6160   -9.9672   -3.9491 C.3     1  LIG   0.1126   0.2800 
10    O2       4.3275   -7.6677   -2.3755 O.3     1  LIG  -0.5168  -0.6330 
11    H1       7.8278   -7.7894   -0.2181 H       1  LIG   0.0410   0.0000 
12    H2       7.4583   -9.4986   -0.5138 H       1  LIG   0.0418   0.0000 
13    H3       7.1007   -8.2921   -1.7556 H       1  LIG   0.0611   0.0000 
14    H4       5.7583   -8.4398    1.0055 H       1  LIG   0.0447   0.0000 
15    H5       5.3988   -7.2336   -0.2176 H       1  LIG   0.0789   0.0000 
16    H6       4.2774  -11.2143   -0.7860 H       1  LIG   0.0775   0.0000 
17    H7       5.4092  -10.7836    0.4833 H       1  LIG   0.0654   0.0000 
18    H8       3.1874  -11.3553    1.4503 H       1  LIG   0.0485   0.0000 
19    H9       3.5686   -9.6525    1.7674 H       1  LIG   0.0374   0.0000 
20    H10      2.4182  -10.0756    0.4935 H       1  LIG   0.0653   0.0000 
21    H11      1.1639   -9.5438   -4.8498 H       1  LIG   0.0653   0.0000 
22    H12      2.0865  -10.9211   -4.2068 H       1  LIG   0.0402   0.0000 
23    H13      0.8315  -10.1235   -3.2021 H       1  LIG   0.0389   0.0000 
@<TRIPOS>BOND
1     1     2     1
2     1     11    1
3     1     12    1
4     1     13    1
5     2     3     1
6     2     14    1
7     2     15    1
8     3     4     1
9     3     6     1
10    4     5     1
11    4     16    1
12    4     17    1
13    5     18    1
14    5     19    1
15    5     20    1
16    6     7     2
17    6     10    1
18    7     8     1
19    8     9     1
20    9     21    1
21    9     22    1
22    9     23    1
@<TRIPOS>SUBSTRUCTURE
1   LIG    1    
 
########## Number      : 819
########## Name        : ZINC00015872
########## Description : AM1BCC_CHARGES =   0.9998 ORIGINAL_CHARGES =   1.0000

@<TRIPOS>MOLECULE
ZINC00015872
27    28    1     0     0    
SMALL
USER_CHARGES
****
****
@<TRIPOS>ATOM
1     C1       3.4744   -8.2786   -0.8091 C.ar    1  LIG  -0.1081  -0.1500 
2     C2       3.8891   -8.3836    0.5141 C.ar    1  LIG  -0.1004  -0.1500 
3     C3       3.4967   -7.4213    1.4401 C.ar    1  LIG  -0.1086  -0.1500 
4     C4       2.6836   -6.3538    1.0406 C.ar    1  LIG   0.0330   0.1770 
5     C5       2.2441   -6.2274   -0.2942 C.ar    1  LIG   0.0731   0.1000 
6     C6       2.6628   -7.2128   -1.2075 C.ar    1  LIG  -0.1450  -0.1500 
7     N1       1.4136   -5.1748   -0.6931 N.pl3   1  LIG  -0.6411  -0.8382 
8     C7      -0.0040   -5.3159   -0.3356 C.3     1  LIG   0.1620   0.3691 
9     C8      -0.6822   -3.9495   -0.3602 C.3     1  LIG   0.1008   0.5030 
10    C9       1.0225   -3.1396   -1.9934 C.3     1  LIG   0.1006   0.5030 
11    C10      1.6924   -4.5107   -1.9701 C.3     1  LIG   0.1648   0.3691 
12    Cl1      2.2891   -5.1636    2.2377 Cl      1  LIG  -0.0745  -0.1770 
13    H1       3.7782   -9.0283   -1.5345 H       1  LIG   0.1545   0.1500 
14    H2       4.5203   -9.2117    0.8232 H       1  LIG   0.1594   0.1500 
15    H3       3.8358   -7.5076    2.4694 H       1  LIG   0.1667   0.1500 
16    H4       2.3451   -7.1738   -2.2468 H       1  LIG   0.1343   0.1500 
17    H5      -0.4941   -5.9922   -1.0479 H       1  LIG   0.0470   0.0000 
18    H6      -0.1343   -5.7509    0.6618 H       1  LIG   0.1210   0.0000 
19    H7      -1.7661   -4.0343   -0.2410 H       1  LIG   0.1074   0.0000 
20    H8      -0.2816   -3.2786    0.4072 H       1  LIG   0.1217   0.0000 
21    H9       1.0947   -2.6713   -2.9791 H       1  LIG   0.1069   0.0000 
22    H10      1.4390   -2.4659   -1.2370 H       1  LIG   0.1223   0.0000 
23    H11      2.7717   -4.3718   -2.1070 H       1  LIG   0.1186   0.0000 
24    H12      1.3207   -5.1187   -2.8043 H       1  LIG   0.0420   0.0000 
25    N2      -0.4354   -3.2956   -1.6854 N.4     1  LIG  -0.7612  -0.9060 
26    H13     -0.8864   -2.3707   -1.6973 H       1  LIG   0.4559   0.4500 
27    H14     -0.8904   -3.8410   -2.4305 H       1  LIG   0.4467   0.4500 
@<TRIPOS>BOND
1     1     6     ar
2     1     2     ar
3     1     13    1
4     2     3     ar
5     2     14    1
6     3     4     ar
7     3     15    1
8     4     5     ar
9     4     12    1
10    5     6     ar
11    5     7     1
12    6     16    1
13    7     11    1
14    7     8     1
15    8     9     1
16    8     17    1
17    8     18    1
18    9     19    1
19    9     20    1
20    9     25    1
21    10    11    1
22    10    21    1
23    10    22    1
24    10    25    1
25    11    23    1
26    11    24    1
27    25    26    1
28    25    27    1
@<TRIPOS>SUBSTRUCTURE
1   LIG    1    
 
########## Number      : 820
########## Name        : ZINC00016019
########## Description : AM1BCC_CHARGES =   0.0003 ORIGINAL_CHARGES =   0.0000

@<TRIPOS>MOLECULE
ZINC00016019
43    45    1     0     0    
SMALL
USER_CHARGES
****
****
@<TRIPOS>ATOM
1     C1       4.3992    2.3566    0.9996 C.ar    1  LIG  -0.1283  -0.1500 
2     C2       3.5491    1.2842    1.2611 C.ar    1  LIG  -0.1354  -0.1500 
3     C3       2.1653    1.4726    1.2645 C.ar    1  LIG  -0.1139  -0.1500 
4     C4       1.6142    2.7370    1.0041 C.ar    1  LIG  -0.0399   0.0000 
5     C5       2.4842    3.8084    0.7465 C.ar    1  LIG  -0.1140  -0.1500 
6     C6       3.8675    3.6184    0.7431 C.ar    1  LIG  -0.1352  -0.1500 
7     C7       0.1607    2.9320    0.9954 C.ar    1  LIG  -0.0338   0.0000 
8     C8      -0.5410    3.0834    2.2013 C.ar    1  LIG  -0.1111  -0.1500 
9     C9      -1.9288    3.2575    2.2073 C.ar    1  LIG  -0.1312  -0.1500 
10    C10     -2.6413    3.2767    1.0085 C.ar    1  LIG  -0.1182  -0.1500 
11    C11     -1.9700    3.1260   -0.2014 C.ar    1  LIG  -0.1242  -0.1500 
12    C12     -0.5810    2.9709   -0.1974 C.ar    1  LIG   0.1275   0.0825 
13    O1       0.0704    2.7725   -1.4242 O.3     1  LIG  -0.3604  -0.2325 
14    C13      0.3381    3.9460   -2.1252 C.2     1  LIG   0.7276   0.7800 
15    O2       0.0228    5.0747   -1.7557 O.2     1  LIG  -0.5725  -0.5700 
16    N1       1.0202    3.7172   -3.3040 N.am    1  LIG  -0.5122  -0.7301 
17    C14      1.4827    2.4167   -3.7862 C.3     1  LIG   0.0934   0.3001 
18    C15      2.8150    2.0410   -3.1252 C.3     1  LIG  -0.1085   0.0000 
19    C16      3.3591    0.7202   -3.6625 C.3     1  LIG  -0.0728   0.0000 
20    C17      3.4782    0.7366   -5.1833 C.3     1  LIG  -0.0811   0.0000 
21    C18      2.1557    1.1095   -5.8466 C.3     1  LIG  -0.0757   0.0000 
22    C19      1.6131    2.4328   -5.3135 C.3     1  LIG  -0.0817   0.0000 
23    H1       1.2759    4.5401   -3.8402 H       1  LIG   0.3144   0.3700 
24    H2       5.4752    2.2090    0.9960 H       1  LIG   0.1304   0.1500 
25    H3       3.9624    0.2998    1.4610 H       1  LIG   0.1314   0.1500 
26    H4       1.5180    0.6219    1.4664 H       1  LIG   0.1363   0.1500 
27    H5       2.0881    4.8012    0.5432 H       1  LIG   0.1515   0.1500 
28    H6       4.5290    4.4556    0.5395 H       1  LIG   0.1328   0.1500 
29    H7      -0.0103    3.0661    3.1512 H       1  LIG   0.1409   0.1500 
30    H8      -2.4543    3.3736    3.1512 H       1  LIG   0.1351   0.1500 
31    H9      -3.7198    3.4050    1.0198 H       1  LIG   0.1368   0.1500 
32    H10     -2.5242    3.1304   -1.1352 H       1  LIG   0.1486   0.1500 
33    H11      0.7291    1.6685   -3.5100 H       1  LIG   0.0814   0.0000 
34    H12      3.5526    2.8360   -3.2964 H       1  LIG   0.0409   0.0000 
35    H13      2.6911    1.9644   -2.0395 H       1  LIG   0.0631   0.0000 
36    H14      4.3401    0.5179   -3.2178 H       1  LIG   0.0449   0.0000 
37    H15      2.6952   -0.0980   -3.3570 H       1  LIG   0.0453   0.0000 
38    H16      4.2508    1.4563   -5.4807 H       1  LIG   0.0405   0.0000 
39    H17      3.8044   -0.2474   -5.5385 H       1  LIG   0.0430   0.0000 
40    H18      2.2940    1.1782   -6.9315 H       1  LIG   0.0443   0.0000 
41    H19      1.4205    0.3153   -5.6677 H       1  LIG   0.0445   0.0000 
42    H20      0.6372    2.6397   -5.7694 H       1  LIG   0.0542   0.0000 
43    H21      2.2791    3.2488   -5.6238 H       1  LIG   0.0416   0.0000 
@<TRIPOS>BOND
1     1     6     ar
2     1     2     ar
3     1     24    1
4     2     3     ar
5     2     25    1
6     3     4     ar
7     3     26    1
8     4     5     ar
9     4     7     1
10    5     6     ar
11    5     27    1
12    6     28    1
13    7     12    ar
14    7     8     ar
15    8     9     ar
16    8     29    1
17    9     10    ar
18    9     30    1
19    10    11    ar
20    10    31    1
21    11    12    ar
22    11    32    1
23    12    13    1
24    13    14    1
25    14    15    2
26    14    16    am
27    16    17    1
28    16    23    1
29    17    22    1
30    17    18    1
31    17    33    1
32    18    19    1
33    18    34    1
34    18    35    1
35    19    20    1
36    19    36    1
37    19    37    1
38    20    21    1
39    20    38    1
40    20    39    1
41    21    22    1
42    21    40    1
43    21    41    1
44    22    42    1
45    22    43    1
@<TRIPOS>SUBSTRUCTURE
1   LIG    1    
 
########## Number      : 821
########## Name        : ZINC00016086
########## Description : AM1BCC_CHARGES =  -1.0000 ORIGINAL_CHARGES =  -1.0000

@<TRIPOS>MOLECULE
ZINC00016086
19    19    1     0     0    
SMALL
USER_CHARGES
****
****
@<TRIPOS>ATOM
1     C1       4.3165   -8.8848   -2.4213 C.3     1  LIG   0.1321   0.2800 
2     O1       3.2470   -8.0308   -2.0038 O.3     1  LIG  -0.4465  -0.4300 
3     C2       3.4869   -7.3069   -0.8813 C.2     1  LIG   0.6646   0.6338 
4     O2       4.5094   -7.3208   -0.2141 O.2     1  LIG  -0.5776  -0.5700 
5     C3       2.3140   -6.4668   -0.5514 C.ar    1  LIG  -0.3044   0.0862 
6     C4       1.1451   -6.4470   -1.3089 C.ar    1  LIG  -0.0639  -0.1500 
7     C5       0.0866   -5.6237   -0.9248 C.ar    1  LIG  -0.2521  -0.1500 
8     C6       0.2176   -4.8312    0.2159 C.ar    1  LIG   0.4036   0.1310 
9     N1       1.3528   -4.8413    0.9637 N.ar    1  LIG  -0.6534  -0.6200 
10    C7       2.3643   -5.6493    0.5684 C.ar    1  LIG   0.4374   0.1600 
11    C8      -0.9114   -3.9288    0.6579 C.2     1  LIG   0.8117   0.9790 
12    O3      -0.7185   -3.2369    1.7065 O.co2   1  LIG  -0.7711  -0.9000 
13    H1       3.9997   -9.4073   -3.3279 H       1  LIG   0.0473   0.0000 
14    H2       5.2074   -8.2925   -2.6513 H       1  LIG   0.0353   0.0000 
15    H3       4.5340   -9.6267   -1.6470 H       1  LIG   0.0357   0.0000 
16    H4       1.0299   -7.0587   -2.1990 H       1  LIG   0.1327   0.1500 
17    H5      -0.8216   -5.6135   -1.5202 H       1  LIG   0.1752   0.1500 
18    H6       3.2399   -5.6086    1.2096 H       1  LIG   0.0182   0.1500 
19    O4      -1.9697   -3.9250   -0.0467 O.co2   1  LIG  -0.8248  -0.9000 
@<TRIPOS>BOND
1     1     2     1
2     1     13    1
3     1     14    1
4     1     15    1
5     2     3     1
6     3     4     2
7     3     5     1
8     5     10    ar
9     5     6     ar
10    6     7     ar
11    6     16    1
12    7     8     ar
13    7     17    1
14    8     9     ar
15    8     11    1
16    9     10    ar
17    10    18    1
18    11    12    2
19    11    19    1
@<TRIPOS>SUBSTRUCTURE
1   LIG    1    
 
########## Number      : 822
########## Name        : ZINC00016163
########## Description : AM1BCC_CHARGES =  -1.0001 ORIGINAL_CHARGES =  -1.0000

@<TRIPOS>MOLECULE
ZINC00016163
41    42    1     0     0    
SMALL
USER_CHARGES
****
****
@<TRIPOS>ATOM
1     C1       5.4260  -11.1610    0.4933 C.3     1  LIG   0.1128   0.2800 
2     O1       4.5906  -10.3334   -0.3069 O.3     1  LIG  -0.3206  -0.3625 
3     C2       4.3062   -9.0810    0.1730 C.ar    1  LIG   0.1224   0.0825 
4     C3       4.7717   -8.5606    1.3810 C.ar    1  LIG  -0.1988  -0.1500 
5     C4       4.3848   -7.2751    1.7736 C.ar    1  LIG  -0.0546   0.0862 
6     C5       3.5571   -6.4839    0.9691 C.ar    1  LIG  -0.1904  -0.1500 
7     C6       3.0822   -6.9914   -0.2403 C.ar    1  LIG   0.1284   0.0825 
8     C7       3.4784   -8.2816   -0.6361 C.ar    1  LIG   0.0286   0.0825 
9     O2       2.9880   -8.8017   -1.8140 O.3     1  LIG  -0.3160  -0.3625 
10    C8       3.8742   -8.4953   -2.8916 C.3     1  LIG   0.1183   0.2800 
11    O3       2.2458   -6.3261   -1.0990 O.3     1  LIG  -0.3254  -0.3625 
12    C9       1.8136   -5.0284   -0.7082 C.3     1  LIG   0.1104   0.2800 
13    C10      4.9086   -6.7360    3.0420 C.2     1  LIG   0.6788   0.5438 
14    O4       6.1291   -6.6451    3.1556 O.2     1  LIG  -0.5958  -0.5700 
15    N1       3.9889   -6.3681    4.0129 N.am    1  LIG  -0.4308  -0.6602 
16    C11      2.5581   -6.6738    4.0302 C.3     1  LIG   0.0554   0.3001 
17    C12      2.1935   -6.6721    5.5059 C.3     1  LIG   0.1347   0.2800 
18    C13      3.1281   -5.6236    6.1139 C.3     1  LIG  -0.1031   0.0000 
19    C14      4.4044   -5.7520    5.2692 C.3     1  LIG  -0.0442   0.1941 
20    C15      4.9933   -4.3450    5.0581 C.2     1  LIG   0.9177   0.9060 
21    O5       4.4113   -3.6191    4.2019 O.co2   1  LIG  -0.8371  -0.9000 
22    O6       2.4884   -7.9517    6.0503 O.3     1  LIG  -0.6153  -0.6800 
23    H1       2.3331   -7.9041    7.0090 H       1  LIG   0.3977   0.4000 
24    H2       5.5492  -12.1146   -0.0291 H       1  LIG   0.0537   0.0000 
25    H3       6.4200  -10.7182    0.6152 H       1  LIG   0.0374   0.0000 
26    H4       4.9623  -11.3707    1.4628 H       1  LIG   0.0336   0.0000 
27    H5       5.4220   -9.1323    2.0359 H       1  LIG   0.1505   0.1500 
28    H6       3.3038   -5.4830    1.3053 H       1  LIG   0.1796   0.1500 
29    H7       3.4507   -8.9242   -3.8046 H       1  LIG   0.0450   0.0000 
30    H8       3.9661   -7.4135   -3.0369 H       1  LIG   0.0309   0.0000 
31    H9       4.8621   -8.9418   -2.7346 H       1  LIG   0.0274   0.0000 
32    H10      1.1455   -4.6506   -1.4882 H       1  LIG   0.0532   0.0000 
33    H11      1.2450   -5.0656    0.2270 H       1  LIG   0.0423   0.0000 
34    H12      2.6596   -4.3375   -0.6321 H       1  LIG   0.0474   0.0000 
35    H13      2.0464   -5.8630    3.5012 H       1  LIG   0.0472   0.0000 
36    H14      2.3574   -7.6295    3.5380 H       1  LIG   0.0394   0.0000 
37    H15      1.1431   -6.4246    5.7093 H       1  LIG   0.0765   0.0000 
38    H16      2.6785   -4.6280    6.0182 H       1  LIG   0.0771   0.0000 
39    H17      3.3384   -5.8044    7.1731 H       1  LIG   0.0337   0.0000 
40    H18      5.1312   -6.4020    5.7832 H       1  LIG   0.0700   0.0000 
41    O7       5.9900   -4.0790    5.7903 O.co2   1  LIG  -0.8181  -0.9000 
@<TRIPOS>BOND
1     1     2     1
2     1     24    1
3     1     25    1
4     1     26    1
5     2     3     1
6     3     8     ar
7     3     4     ar
8     4     5     ar
9     4     27    1
10    5     6     ar
11    5     13    1
12    6     7     ar
13    6     28    1
14    7     8     ar
15    7     11    1
16    8     9     1
17    9     10    1
18    10    29    1
19    10    30    1
20    10    31    1
21    11    12    1
22    12    32    1
23    12    33    1
24    12    34    1
25    13    14    2
26    13    15    am
27    15    19    1
28    15    16    1
29    16    17    1
30    16    35    1
31    16    36    1
32    17    18    1
33    17    22    1
34    17    37    1
35    18    19    1
36    18    38    1
37    18    39    1
38    19    20    1
39    19    40    1
40    20    21    2
41    20    41    1
42    22    23    1
@<TRIPOS>SUBSTRUCTURE
1   LIG    1    
 
########## Number      : 823
########## Name        : ZINC00016356
########## Description : AM1BCC_CHARGES =   0.0001 ORIGINAL_CHARGES =  -0.0000

@<TRIPOS>MOLECULE
ZINC00016356
13    13    1     0     0    
SMALL
USER_CHARGES
****
****
@<TRIPOS>ATOM
1     C1       5.2091   -9.2213   -2.1648 C.2     1  LIG   0.1016  -0.0410 
2     C2       3.8804   -9.0912   -2.0642 C.2     1  LIG  -0.1681   0.0794 
3     C3       3.2752   -9.0650   -0.7027 C.2     1  LIG   0.7307   0.6156 
4     O1       2.0640   -8.9482   -0.5373 O.2     1  LIG  -0.5778  -0.5700 
5     N1       4.1747   -9.1812    0.3451 N.am    1  LIG  -0.5839  -0.4900 
6     C4       5.5542   -9.3161    0.2308 C.2     1  LIG   0.8038   0.6900 
7     O2       6.2946   -9.4146    1.2082 O.2     1  LIG  -0.6174  -0.5700 
8     N2       6.0230   -9.3302   -1.0699 N.am    1  LIG  -0.4632  -0.5390 
9     C5       3.0592   -8.9802   -3.2188 C.1     1  LIG   0.2147   0.4921 
10    N3       2.3944   -8.8900   -4.1656 N.1     1  LIG  -0.3415  -0.5571 
11    H1       3.7922   -9.1666    1.2848 H       1  LIG   0.3612   0.3700 
12    H2       7.0228   -9.4262   -1.2199 H       1  LIG   0.3627   0.3700 
13    H3       5.7231   -9.2486   -3.1202 H       1  LIG   0.1773   0.1500 
@<TRIPOS>BOND
1     1     8     1
2     1     2     2
3     1     13    1
4     2     3     1
5     2     9     1
6     3     4     2
7     3     5     am
8     5     6     am
9     5     11    1
10    6     7     2
11    6     8     am
12    8     12    1
13    9     10    3
@<TRIPOS>SUBSTRUCTURE
1   LIG    1    
 
########## Number      : 824
########## Name        : ZINC00016359
########## Description : AM1BCC_CHARGES =  -0.0001 ORIGINAL_CHARGES =  -0.0000

@<TRIPOS>MOLECULE
ZINC00016359
16    16    1     0     0    
SMALL
USER_CHARGES
****
****
@<TRIPOS>ATOM
1     C1       6.1937  -10.3443   -3.6218 C.2     1  LIG  -0.2253  -0.3000 
2     C2       5.1109   -9.6079   -3.3424 C.2     1  LIG  -0.0958  -0.1500 
3     C3       4.5945   -9.3368   -2.0136 C.2     1  LIG  -0.2235   0.0144 
4     C4       4.5757  -10.2412   -1.0224 C.2     1  LIG   0.0517  -0.0410 
5     N1       4.0548   -9.9804    0.2155 N.am    1  LIG  -0.4673  -0.5390 
6     C5       3.4874   -8.7704    0.5627 C.2     1  LIG   0.8026   0.6900 
7     O1       3.0241   -8.5465    1.6802 O.2     1  LIG  -0.6339  -0.5700 
8     N2       3.4784   -7.8257   -0.4554 N.am    1  LIG  -0.5840  -0.4900 
9     C6       3.9767   -7.9991   -1.7361 C.2     1  LIG   0.7204   0.6156 
10    O2       3.9252   -7.1189   -2.5921 O.2     1  LIG  -0.6045  -0.5700 
11    H1       4.0840  -10.7161    0.9146 H       1  LIG   0.3561   0.3700 
12    H2       3.0633   -6.9252   -0.2413 H       1  LIG   0.3556   0.3700 
13    H3       6.5092  -10.4806   -4.6513 H       1  LIG   0.1234   0.1500 
14    H4       6.7918  -10.8160   -2.8497 H       1  LIG   0.1030   0.1500 
15    H5       4.5742   -9.1474   -4.1690 H       1  LIG   0.1548   0.1500 
16    H6       4.9716  -11.2444   -1.1392 H       1  LIG   0.1666   0.1500 
@<TRIPOS>BOND
1     1     2     2
2     1     13    1
3     1     14    1
4     2     3     1
5     2     15    1
6     3     9     1
7     3     4     2
8     4     5     1
9     4     16    1
10    5     6     am
11    5     11    1
12    6     7     2
13    6     8     am
14    8     9     am
15    8     12    1
16    9     10    2
@<TRIPOS>SUBSTRUCTURE
1   LIG    1    
 
########## Number      : 825
########## Name        : ZINC00016381
########## Description : AM1BCC_CHARGES =   2.0002 ORIGINAL_CHARGES =   1.6665

@<TRIPOS>MOLECULE
ZINC00016381
26    26    1     0     0    
SMALL
USER_CHARGES
****
****
@<TRIPOS>ATOM
1     C1       3.2029   -7.0217   -1.3063 C.ar    1  LIG  -0.0867  -0.1500 
2     C2       3.8907   -7.8978   -0.4642 C.ar    1  LIG  -0.0888  -0.1500 
3     C3       4.1550   -7.5355    0.8573 C.ar    1  LIG   0.0645   0.1770 
4     C4       3.7383   -6.2867    1.3276 C.ar    1  LIG   0.0211   0.1770 
5     C5       3.0475   -5.4102    0.4800 C.ar    1  LIG  -0.1400  -0.1500 
6     C6       2.7546   -5.7838   -0.8341 C.ar    1  LIG  -0.1274   0.3110 
7     N1       2.0774   -4.9403   -1.7699 N.pl3   1  LIG  -0.2077  -0.8277 
8     C7       1.2392   -3.8697   -1.4573 C.cat   1  LIG   0.4968   1.2000 
9     N2       0.9104   -3.0070   -2.4945 N.pl3   1  LIG  -0.4832  -0.9667 
10    N3       0.6761   -3.7190   -0.1988 N.pl3   1  LIG  -0.5005  -0.9167 
11    C8       0.1329   -2.5584    0.3211 C.cat   1  LIG   0.5374   1.2000 
12    N4      -0.6526   -2.6452    1.4550 N.pl3   1  LIG  -0.4377  -0.9667 
13    N5       0.3761   -1.3107   -0.2158 N.pl3   1  LIG  -0.4723  -0.9667 
14    Cl1      4.0584   -5.7592    2.9428 Cl      1  LIG   0.0145  -0.1770 
15    Cl2      5.0075   -8.6607    1.8522 Cl      1  LIG   0.0529  -0.1770 
16    H1       2.1989   -5.1609   -2.7574 H       1  LIG   0.3559   0.4500 
17    H2       0.1781   -2.3090   -2.4087 H       1  LIG   0.3376   0.4500 
18    H3       1.3315   -3.1136   -3.4141 H       1  LIG   0.3508   0.4500 
19    H4       0.6210   -4.5497    0.3853 H       1  LIG   0.3784   0.4500 
20    H5      -1.0570   -1.8157    1.8811 H       1  LIG   0.3597   0.4500 
21    H6      -0.8544   -3.5392    1.8942 H       1  LIG   0.3555   0.4500 
22    H7      -0.0531   -0.4806    0.1855 H       1  LIG   0.3574   0.4500 
23    H8       1.0587   -1.1583   -0.9517 H       1  LIG   0.3435   0.4500 
24    H9       3.0081   -7.3227   -2.3329 H       1  LIG   0.1714   0.1500 
25    H10      4.2157   -8.8599   -0.8535 H       1  LIG   0.2015   0.1500 
26    H11      2.7848   -4.4244    0.8507 H       1  LIG   0.1456   0.1500 
@<TRIPOS>BOND
1     1     6     ar
2     1     2     ar
3     1     24    1
4     2     3     ar
5     2     25    1
6     3     4     ar
7     3     15    1
8     4     5     ar
9     4     14    1
10    5     6     ar
11    5     26    1
12    6     7     1
13    7     8     2
14    7     16    1
15    8     9     1
16    8     10    1
17    9     17    1
18    9     18    1
19    10    11    1
20    10    19    1
21    11    12    1
22    11    13    2
23    12    20    1
24    12    21    1
25    13    22    1
26    13    23    1
@<TRIPOS>SUBSTRUCTURE
1   LIG    1    
 
########## Number      : 826
########## Name        : ZINC00016592
########## Description : AM1BCC_CHARGES =   0.0003 ORIGINAL_CHARGES =   0.0000

@<TRIPOS>MOLECULE
ZINC00016592
20    20    1     0     0    
SMALL
USER_CHARGES
****
****
@<TRIPOS>ATOM
1     C1       5.0500  -10.7641   -1.3508 C.3     1  LIG   0.1274   0.2800 
2     O1       4.3435   -9.6557   -0.7849 O.3     1  LIG  -0.4370  -0.4300 
3     C2       4.1441   -8.6057   -1.6212 C.2     1  LIG   0.6405   0.6338 
4     O2       4.5073   -8.5294   -2.7846 O.2     1  LIG  -0.5364  -0.5700 
5     C3       3.4043   -7.5215   -0.9256 C.ar    1  LIG  -0.1048   0.0862 
6     C4       2.9962   -7.6287    0.4110 C.ar    1  LIG  -0.0853  -0.1500 
7     C5       2.3024   -6.5800    1.0205 C.ar    1  LIG  -0.0895  -0.1500 
8     C6       2.0161   -5.4231    0.2934 C.ar    1  LIG  -0.1661   0.0862 
9     C7       2.4176   -5.3057   -1.0377 C.ar    1  LIG  -0.1055  -0.1500 
10    C8       3.1111   -6.3548   -1.6454 C.ar    1  LIG  -0.0892  -0.1500 
11    C9       1.2855   -4.3059    0.9178 C.2     1  LIG   0.5716   0.4238 
12    O3       0.9042   -4.3423    2.0804 O.2     1  LIG  -0.5168  -0.5700 
13    H1       5.1436  -11.5355   -0.5818 H       1  LIG   0.0643   0.0000 
14    H2       4.4922  -11.1778   -2.1964 H       1  LIG   0.0479   0.0000 
15    H3       6.0528  -10.4558   -1.6620 H       1  LIG   0.0479   0.0000 
16    H4       3.2055   -8.5174    1.0005 H       1  LIG   0.1615   0.1500 
17    H5       1.9939   -6.6811    2.0578 H       1  LIG   0.1614   0.1500 
18    H6       2.2003   -4.4098   -1.6133 H       1  LIG   0.1422   0.1500 
19    H7       3.4164   -6.2463   -2.6835 H       1  LIG   0.1623   0.1500 
20    H8       1.0955   -3.4247    0.2820 H       1  LIG   0.0039   0.0600 
@<TRIPOS>BOND
1     1     2     1
2     1     13    1
3     1     14    1
4     1     15    1
5     2     3     1
6     3     4     2
7     3     5     1
8     5     10    ar
9     5     6     ar
10    6     7     ar
11    6     16    1
12    7     8     ar
13    7     17    1
14    8     9     ar
15    8     11    1
16    9     10    ar
17    9     18    1
18    10    19    1
19    11    12    2
20    11    20    1
@<TRIPOS>SUBSTRUCTURE
1   LIG    1    
 
########## Number      : 827
########## Name        : ZINC00016666
########## Description : AM1BCC_CHARGES =  -0.0001 ORIGINAL_CHARGES =   0.0000

@<TRIPOS>MOLECULE
ZINC00016666
33    35    1     0     0    
SMALL
USER_CHARGES
****
****
@<TRIPOS>ATOM
1     C1       7.1465   -2.6809   -0.4461 C.3     1  LIG   0.1127   0.2800 
2     O1       6.3429   -2.2647    0.6517 O.3     1  LIG  -0.3256  -0.3625 
3     C2       5.2495   -1.4943    0.3589 C.ar    1  LIG   0.1319   0.0825 
4     C3       4.8552   -1.0840   -0.9155 C.ar    1  LIG  -0.2069  -0.1500 
5     C4       3.7111   -0.2945   -1.0788 C.ar    1  LIG  -0.0860  -0.1500 
6     C5       2.9441    0.0958    0.0277 C.ar    1  LIG  -0.0773   0.0284 
7     C6       3.3464   -0.3172    1.3033 C.ar    1  LIG  -0.0621  -0.1500 
8     C7       4.4885   -1.1057    1.4651 C.ar    1  LIG  -0.1575  -0.1500 
9     C8       1.7416    0.9284   -0.1402 C.2     1  LIG  -0.1966  -0.0140 
10    C9       0.7408    0.5334   -0.9399 C.2     1  LIG   0.0841  -0.0733 
11    O2      -0.4348    1.2007   -1.1745 O.3     1  LIG  -0.2161  -0.1592 
12    C10     -0.6380    2.3889   -0.5190 C.ar    1  LIG   0.2039   0.0825 
13    C11     -1.8505    3.0364   -0.7651 C.ar    1  LIG  -0.2312  -0.1500 
14    C12     -2.1220    4.2461   -0.1328 C.ar    1  LIG   0.2153   0.0825 
15    C13     -1.1996    4.8174    0.7406 C.ar    1  LIG  -0.2977  -0.1500 
16    C14      0.0112    4.1659    0.9821 C.ar    1  LIG   0.2676   0.0825 
17    C15      0.2999    2.9465    0.3539 C.ar    1  LIG  -0.3341   0.0862 
18    C16      1.5690    2.2210    0.5769 C.2     1  LIG   0.6118   0.4694 
19    O3       2.4354    2.6777    1.3128 O.2     1  LIG  -0.5794  -0.5700 
20    O4       0.8688    4.7853    1.8502 O.3     1  LIG  -0.4970  -0.5325 
21    O5      -3.3167    4.8554   -0.3933 O.3     1  LIG  -0.4850  -0.5325 
22    H1       1.6755    4.2458    1.9344 H       1  LIG   0.4693   0.4500 
23    H2      -3.3615    5.6827    0.1160 H       1  LIG   0.4303   0.4500 
24    H3       7.9701   -3.2815   -0.0480 H       1  LIG   0.0674   0.0000 
25    H4       6.5767   -3.3130   -1.1352 H       1  LIG   0.0324   0.0000 
26    H5       7.5824   -1.8207   -0.9648 H       1  LIG   0.0351   0.0000 
27    H6       5.4142   -1.3575   -1.8050 H       1  LIG   0.1382   0.1500 
28    H7       3.4324    0.0167   -2.0835 H       1  LIG   0.1307   0.1500 
29    H8       2.7751   -0.0351    2.1849 H       1  LIG   0.1469   0.1500 
30    H9       4.7816   -1.4162    2.4653 H       1  LIG   0.1524   0.1500 
31    H10      0.7450   -0.3914   -1.5041 H       1  LIG   0.1871   0.1500 
32    H11     -2.5776    2.6000   -1.4447 H       1  LIG   0.1745   0.1500 
33    H12     -1.4138    5.7621    1.2328 H       1  LIG   0.1608   0.1500 
@<TRIPOS>BOND
1     1     2     1
2     1     24    1
3     1     25    1
4     1     26    1
5     2     3     1
6     3     8     ar
7     3     4     ar
8     4     5     ar
9     4     27    1
10    5     6     ar
11    5     28    1
12    6     7     ar
13    6     9     1
14    7     8     ar
15    7     29    1
16    8     30    1
17    9     18    1
18    9     10    2
19    10    11    1
20    10    31    1
21    11    12    1
22    12    17    ar
23    12    13    ar
24    13    14    ar
25    13    32    1
26    14    15    ar
27    14    21    1
28    15    16    ar
29    15    33    1
30    16    17    ar
31    16    20    1
32    17    18    1
33    18    19    2
34    20    22    1
35    21    23    1
@<TRIPOS>SUBSTRUCTURE
1   LIG    1    
 
########## Number      : 828
########## Name        : ZINC00016827
########## Description : AM1BCC_CHARGES =  -0.0003 ORIGINAL_CHARGES =   0.0000

@<TRIPOS>MOLECULE
ZINC00016827
29    31    1     0     0    
SMALL
USER_CHARGES
****
****
@<TRIPOS>ATOM
1     C1       4.0079   -7.6099   -2.0367 C.ar    1  LIG  -0.1416  -0.1500 
2     C2       2.9558   -8.3808   -1.5718 C.ar    1  LIG  -0.1188  -0.1500 
3     C3       1.9890   -7.8016   -0.7519 C.ar    1  LIG  -0.1736  -0.1500 
4     C4       2.0458   -6.4617   -0.3809 C.ar    1  LIG   0.4302   0.3100 
5     C5       3.1113   -5.6605   -0.8423 C.ar    1  LIG  -0.1841   0.0000 
6     C6       4.0858   -6.2652   -1.6765 C.ar    1  LIG  -0.1057  -0.1500 
7     C7       3.1378   -4.2960   -0.4336 C.ar    1  LIG   0.1942   0.1000 
8     C8       2.0842   -3.7899    0.3583 C.ar    1  LIG  -0.2746  -0.1435 
9     C9       1.0957   -4.6835    0.7742 C.ar    1  LIG   0.4768   0.1665 
10    N1       1.0739   -5.9857    0.4075 N.ar    1  LIG  -0.7050  -0.6200 
11    C10     -0.0644   -4.2445    1.6285 C.3     1  LIG  -0.1338   0.1435 
12    C11      0.1976   -2.9431    2.3765 C.3     1  LIG  -0.0786   0.0000 
13    C12      0.7274   -1.8961    1.4097 C.3     1  LIG  -0.0750   0.0000 
14    C13      2.0579   -2.3452    0.8067 C.3     1  LIG  -0.0189   0.1435 
15    N2       4.1567   -3.4408   -0.8617 N.pl3   1  LIG  -0.8297  -0.9000 
16    H1       4.2251   -2.5026   -0.4923 H       1  LIG   0.4034   0.4000 
17    H2       4.9636   -3.7975   -1.3520 H       1  LIG   0.4026   0.4000 
18    H3       4.7674   -8.0482   -2.6772 H       1  LIG   0.1322   0.1500 
19    H4       2.8824   -9.4295   -1.8439 H       1  LIG   0.1339   0.1500 
20    H5       1.1682   -8.4225   -0.3967 H       1  LIG   0.1499   0.1500 
21    H6       4.9260   -5.6959   -2.0645 H       1  LIG   0.1239   0.1500 
22    H7      -0.9367   -4.1220    0.9744 H       1  LIG   0.0619   0.0000 
23    H8      -0.3073   -5.0322    2.3515 H       1  LIG   0.0685   0.0000 
24    H9      -0.7287   -2.5925    2.8450 H       1  LIG   0.0446   0.0000 
25    H10      0.9256   -3.1084    3.1806 H       1  LIG   0.0464   0.0000 
26    H11     -0.0058   -1.7324    0.6094 H       1  LIG   0.0467   0.0000 
27    H12      0.8600   -0.9366    1.9220 H       1  LIG   0.0412   0.0000 
28    H13      2.8501   -2.2093    1.5538 H       1  LIG   0.0353   0.0000 
29    H14      2.2761   -1.6840   -0.0401 H       1  LIG   0.0474   0.0000 
@<TRIPOS>BOND
1     1     6     ar
2     1     2     ar
3     1     18    1
4     2     3     ar
5     2     19    1
6     3     4     ar
7     3     20    1
8     4     10    ar
9     4     5     ar
10    5     6     ar
11    5     7     ar
12    6     21    1
13    7     8     ar
14    7     15    1
15    8     14    1
16    8     9     ar
17    9     10    ar
18    9     11    1
19    11    12    1
20    11    22    1
21    11    23    1
22    12    13    1
23    12    24    1
24    12    25    1
25    13    14    1
26    13    26    1
27    13    27    1
28    14    28    1
29    14    29    1
30    15    16    1
31    15    17    1
@<TRIPOS>SUBSTRUCTURE
1   LIG    1    
 
########## Number      : 829
########## Name        : ZINC00016956
########## Description : AM1BCC_CHARGES =  -0.0000 ORIGINAL_CHARGES =   0.0000

@<TRIPOS>MOLECULE
ZINC00016956
23    24    1     0     0    
SMALL
USER_CHARGES
****
****
@<TRIPOS>ATOM
1     C1       3.4342   -4.8015    1.5478 C.2     1  LIG   0.0043  -0.0410 
2     C2       4.1024   -5.8528    2.0179 C.2     1  LIG  -0.0334   0.1639 
3     C3       3.7966   -7.2111    1.5472 C.2     1  LIG   0.7050   0.6156 
4     O1       4.4011   -8.1921    1.9655 O.2     1  LIG  -0.5810  -0.5700 
5     N1       2.7803   -7.2606    0.6093 N.am    1  LIG  -0.5843  -0.4900 
6     C4       2.0559   -6.1808    0.0949 C.2     1  LIG   0.8129   0.6900 
7     O2       1.1661   -6.3675   -0.7368 O.2     1  LIG  -0.6350  -0.5700 
8     N2       2.4308   -4.9218    0.6027 N.am    1  LIG  -0.3792  -0.4691 
9     C5       1.7449   -3.6987    0.1556 C.3     1  LIG   0.3164   0.5801 
10    C6       0.2848   -3.6326    0.5986 C.3     1  LIG  -0.1061   0.0000 
11    C7      -0.3188   -2.7948   -0.5014 C.3     1  LIG  -0.1042   0.0000 
12    C8       0.4495   -3.2660   -1.7188 C.3     1  LIG   0.1234   0.2800 
13    O3       1.7668   -3.6169   -1.2696 O.3     1  LIG  -0.4150  -0.5600 
14    F1       5.0783   -5.7351    2.9365 F       1  LIG  -0.1338  -0.1495 
15    H1       2.5310   -8.1784    0.2557 H       1  LIG   0.3579   0.3700 
16    H2       3.6672   -3.8039    1.9034 H       1  LIG   0.1767   0.1500 
17    H3       2.2598   -2.8261    0.5902 H       1  LIG   0.0816   0.0000 
18    H4      -0.1899   -4.6197    0.6138 H       1  LIG   0.0758   0.0000 
19    H5       0.1668   -3.1950    1.5943 H       1  LIG   0.0602   0.0000 
20    H6      -1.4000   -2.9172   -0.6047 H       1  LIG   0.0702   0.0000 
21    H7      -0.1091   -1.7348   -0.3153 H       1  LIG   0.0512   0.0000 
22    H8      -0.0073   -4.1613   -2.1536 H       1  LIG   0.0737   0.0000 
23    H9       0.5179   -2.4983   -2.4946 H       1  LIG   0.0627   0.0000 
@<TRIPOS>BOND
1     1     8     1
2     1     2     2
3     1     16    1
4     2     3     1
5     2     14    1
6     3     4     2
7     3     5     am
8     5     6     am
9     5     15    1
10    6     7     2
11    6     8     am
12    8     9     1
13    9     13    1
14    9     10    1
15    9     17    1
16    10    11    1
17    10    18    1
18    10    19    1
19    11    12    1
20    11    20    1
21    11    21    1
22    12    13    1
23    12    22    1
24    12    23    1
@<TRIPOS>SUBSTRUCTURE
1   LIG    1    
 
########## Number      : 830
########## Name        : ZINC00017095
########## Description : AM1BCC_CHARGES =   0.0001 ORIGINAL_CHARGES =   0.0000

@<TRIPOS>MOLECULE
ZINC00017095
22    22    1     0     0    
SMALL
USER_CHARGES
****
****
@<TRIPOS>ATOM
1     C1       4.2500   -7.4177   -1.3547 C.ar    1  LIG  -0.1700  -0.1500 
2     C2       3.3624   -6.3978   -1.6907 C.ar    1  LIG  -0.1923  -0.1500 
3     C3       2.2611   -6.2097   -0.8710 C.ar    1  LIG   0.3317   0.3962 
4     N1       1.9972   -6.9478    0.2289 N.ar    1  LIG  -0.5862  -0.6200 
5     C4       2.8849   -7.9276    0.5188 C.ar    1  LIG   0.3388   0.1600 
6     C5       4.0190   -8.2166   -0.2335 C.ar    1  LIG   0.0411   0.1000 
7     N2       4.8983   -9.2188    0.1309 N.pl3   1  LIG  -0.8179  -0.9000 
8     C6       1.2997   -5.1438   -1.1906 C.2     1  LIG   0.2508   0.3038 
9     N3       0.2569   -4.9285   -0.4558 N.2     1  LIG  -0.3596  -0.5120 
10    N4      -0.5288   -3.9096   -0.8869 N.pl3   1  LIG  -0.3136  -0.3680 
11    C7      -1.6809   -3.5528   -0.2120 C.2     1  LIG   0.5860   0.5000 
12    S1      -2.2876   -4.2638    1.1765 S.2     1  LIG  -0.4766  -0.3800 
13    N5      -2.3438   -2.4998   -0.7979 N.pl3   1  LIG  -0.6516  -0.8000 
14    H1       4.6978   -9.8155    0.9225 H       1  LIG   0.4013   0.4000 
15    H2       5.6953   -9.4377   -0.4521 H       1  LIG   0.3983   0.4000 
16    H3      -0.2475   -3.4113   -1.7246 H       1  LIG   0.2879   0.3700 
17    H4      -3.2045   -2.1431   -0.3972 H       1  LIG   0.3445   0.3700 
18    H5      -2.0023   -2.0484   -1.6383 H       1  LIG   0.2983   0.3700 
19    H6       5.1257   -7.5851   -1.9772 H       1  LIG   0.1385   0.1500 
20    H7       3.5431   -5.7816   -2.5645 H       1  LIG   0.1373   0.1500 
21    H8       2.6463   -8.4978    1.4121 H       1  LIG   0.0276   0.1500 
22    H9       1.5146   -4.5376   -2.0899 H       1  LIG  -0.0142   0.0600 
@<TRIPOS>BOND
1     1     6     ar
2     1     2     ar
3     1     19    1
4     2     3     ar
5     2     20    1
6     3     4     ar
7     3     8     1
8     4     5     ar
9     5     6     ar
10    5     21    1
11    6     7     1
12    7     14    1
13    7     15    1
14    8     9     2
15    8     22    1
16    9     10    1
17    10    11    1
18    10    16    1
19    11    12    2
20    11    13    1
21    13    17    1
22    13    18    1
@<TRIPOS>SUBSTRUCTURE
1   LIG    1    
 
########## Number      : 831
########## Name        : ZINC00017227
########## Description : AM1BCC_CHARGES =  -0.0002 ORIGINAL_CHARGES =   0.0000

@<TRIPOS>MOLECULE
ZINC00017227
35    37    1     0     0    
SMALL
USER_CHARGES
****
****
@<TRIPOS>ATOM
1     C1       6.9161  -10.1864   -0.4522 C.3     1  LIG   0.1079   0.2800 
2     O1       5.8448   -9.2598   -0.5806 O.3     1  LIG  -0.2993  -0.3625 
3     C2       5.7537   -8.2664    0.3635 C.ar    1  LIG   0.1271   0.0825 
4     C3       6.6354   -8.1098    1.4378 C.ar    1  LIG  -0.1927  -0.1500 
5     C4       6.4617   -7.0656    2.3481 C.ar    1  LIG  -0.0682  -0.1500 
6     C5       5.4081   -6.1619    2.1891 C.ar    1  LIG  -0.1532   0.0862 
7     C6       4.5126   -6.3185    1.1236 C.ar    1  LIG  -0.1653  -0.1500 
8     C7       4.6825   -7.3650    0.2065 C.ar    1  LIG   0.0994   0.0825 
9     O2       3.8595   -7.5995   -0.8687 O.3     1  LIG  -0.3019  -0.3625 
10    C8       2.7764   -6.7013   -1.0751 C.3     1  LIG   0.1085   0.2800 
11    C9       5.2507   -5.0685    3.1810 C.2     1  LIG   0.5536   0.4238 
12    N1       4.7177   -3.8756    2.7152 N.am    1  LIG  -0.4949  -0.4900 
13    C10      4.5109   -2.7661    3.5151 C.2     1  LIG   0.7087   0.5438 
14    O3       4.0434   -1.7098    3.1062 O.2     1  LIG  -0.6268  -0.5700 
15    C11      4.9053   -2.9428    4.9261 C.ar    1  LIG  -0.1915   0.0862 
16    C12      4.7459   -1.9015    5.8453 C.ar    1  LIG  -0.0588  -0.1500 
17    C13      5.1298   -2.0928    7.1716 C.ar    1  LIG  -0.1543  -0.1500 
18    C14      5.6684   -3.3147    7.5731 C.ar    1  LIG  -0.0944  -0.1500 
19    C15      5.8248   -4.3500    6.6488 C.ar    1  LIG  -0.1248  -0.1500 
20    C16      5.4447   -4.1755    5.3144 C.ar    1  LIG   0.1860   0.1790 
21    N2       5.6157   -5.2418    4.4139 N.2     1  LIG  -0.6222  -0.6290 
22    H1       4.4774   -3.7712    1.7353 H       1  LIG   0.3371   0.3700 
23    H2       6.8408  -10.8997   -1.2786 H       1  LIG   0.0726   0.0000 
24    H3       7.8853   -9.6837   -0.5348 H       1  LIG   0.0344   0.0000 
25    H4       6.8393  -10.7518    0.4823 H       1  LIG   0.0365   0.0000 
26    H5       7.4715   -8.7836    1.5978 H       1  LIG   0.1468   0.1500 
27    H6       7.1658   -6.9667    3.1708 H       1  LIG   0.1587   0.1500 
28    H7       3.6740   -5.6368    1.0293 H       1  LIG   0.1442   0.1500 
29    H8       2.2427   -7.0237   -1.9744 H       1  LIG   0.0734   0.0000 
30    H9       2.0700   -6.7371   -0.2393 H       1  LIG   0.0345   0.0000 
31    H10      3.1356   -5.6818   -1.2498 H       1  LIG   0.0323   0.0000 
32    H11      4.3282   -0.9447    5.5447 H       1  LIG   0.1580   0.1500 
33    H12      5.0096   -1.2894    7.8930 H       1  LIG   0.1396   0.1500 
34    H13      5.9672   -3.4622    8.6072 H       1  LIG   0.1368   0.1500 
35    H14      6.2457   -5.2977    6.9758 H       1  LIG   0.1520   0.1500 
@<TRIPOS>BOND
1     1     2     1
2     1     23    1
3     1     24    1
4     1     25    1
5     2     3     1
6     3     8     ar
7     3     4     ar
8     4     5     ar
9     4     26    1
10    5     6     ar
11    5     27    1
12    6     7     ar
13    6     11    1
14    7     8     ar
15    7     28    1
16    8     9     1
17    9     10    1
18    10    29    1
19    10    30    1
20    10    31    1
21    11    21    2
22    11    12    1
23    12    13    am
24    12    22    1
25    13    14    2
26    13    15    1
27    15    20    ar
28    15    16    ar
29    16    17    ar
30    16    32    1
31    17    18    ar
32    17    33    1
33    18    19    ar
34    18    34    1
35    19    20    ar
36    19    35    1
37    20    21    1
@<TRIPOS>SUBSTRUCTURE
1   LIG    1    
 
########## Number      : 832
########## Name        : ZINC00017253
########## Description : AM1BCC_CHARGES =   0.0001 ORIGINAL_CHARGES =  -0.0000

@<TRIPOS>MOLECULE
ZINC00017253
32    34    1     0     0    
SMALL
USER_CHARGES
****
****
@<TRIPOS>ATOM
1     C1       0.9546    9.3121   14.0850 C.ar    1  LIG  -0.1363  -0.1500 
2     C2      -0.1221    9.5350   13.2273 C.ar    1  LIG  -0.0854  -0.1500 
3     C3      -0.0075    9.2597   11.8587 C.ar    1  LIG  -0.1316  -0.1435 
4     C4       1.2074    8.7598   11.3656 C.ar    1  LIG  -0.0532  -0.1500 
5     C5       2.2913    8.5236   12.2227 C.ar    1  LIG  -0.1703  -0.1435 
6     C6       2.1568    8.8123   13.5852 C.ar    1  LIG  -0.0686  -0.1500 
7     C7       3.5925    8.0116   11.6749 C.3     1  LIG   0.6880   1.1635 
8     F1       3.4330    7.1653   10.6193 F       1  LIG  -0.2344  -0.3400 
9     F2       4.3967    9.0163   11.2306 F       1  LIG  -0.2320  -0.3400 
10    F3       4.3284    7.3202   12.5894 F       1  LIG  -0.2372  -0.3400 
11    C8      -1.1582    9.5262   10.9264 C.3     1  LIG   0.0972   0.3991 
12    N1      -1.1189   10.8865   10.4225 N.pl3   1  LIG  -0.2643   0.0476 
13    C9      -1.7499   11.9666   10.9802 C.2     1  LIG   0.4252   0.0365 
14    N2      -1.5440   13.0669   10.2876 N.2     1  LIG  -0.5487  -0.5653 
15    C10     -0.7551   12.6779    9.2319 C.ar    1  LIG  -0.1031   0.2272 
16    C11     -0.4836   11.3234    9.2921 C.ar    1  LIG   0.4226   0.1054 
17    N3       0.2473   10.6065    8.4283 N.ar    1  LIG  -0.6749  -0.5670 
18    C12      0.7516   11.3299    7.4130 C.ar    1  LIG   0.4463   0.2495 
19    N4       0.5606   12.6805    7.2356 N.ar    1  LIG   0.2766   0.5710 
20    C13     -0.2086   13.3827    8.1583 C.ar    1  LIG   0.0851   0.1895 
21    N5      -0.4056   14.7431    7.9836 N.pl3   1  LIG  -0.4077  -0.9000 
22    O1       1.0872   13.2704    6.2323 O.3     1  LIG  -0.6313  -0.7500 
23    H1       0.0165   15.1998    7.1852 H       1  LIG   0.3094   0.4000 
24    H2      -0.9607   15.2727    8.6420 H       1  LIG   0.3068   0.4000 
25    H3       0.8580    9.5320   15.1446 H       1  LIG   0.1462   0.1500 
26    H4      -1.0500    9.9290   13.6344 H       1  LIG   0.1358   0.1500 
27    H5       1.3114    8.5536   10.3017 H       1  LIG   0.1689   0.1500 
28    H6       2.9882    8.6514   14.2674 H       1  LIG   0.1556   0.1500 
29    H7      -1.1445    8.8412   10.0708 H       1  LIG   0.0909   0.0000 
30    H8      -2.1183    9.3793   11.4352 H       1  LIG   0.0668   0.0000 
31    H9      -2.3387   11.8944   11.8848 H       1  LIG   0.0742   0.1500 
32    H10      1.3562   10.8396    6.6655 H       1  LIG   0.0835   0.1500 
@<TRIPOS>BOND
1     1     6     ar
2     1     2     ar
3     1     25    1
4     2     3     ar
5     2     26    1
6     3     4     ar
7     3     11    1
8     4     5     ar
9     4     27    1
10    5     6     ar
11    5     7     1
12    6     28    1
13    7     8     1
14    7     9     1
15    7     10    1
16    11    12    1
17    11    29    1
18    11    30    1
19    12    16    1
20    12    13    1
21    13    14    2
22    13    31    1
23    14    15    1
24    15    20    ar
25    15    16    ar
26    16    17    ar
27    17    18    ar
28    18    19    ar
29    18    32    1
30    19    20    ar
31    19    22    1
32    20    21    1
33    21    23    1
34    21    24    1
@<TRIPOS>SUBSTRUCTURE
1   LIG    1    
 
########## Number      : 833
########## Name        : ZINC00017287
########## Description : AM1BCC_CHARGES =   0.0003 ORIGINAL_CHARGES =   0.0000

@<TRIPOS>MOLECULE
ZINC00017287
36    39    1     0     0    
SMALL
USER_CHARGES
****
****
@<TRIPOS>ATOM
1     C1       5.2178   -6.6012   -0.0773 C.ar    1  LIG  -0.1255  -0.1500 
2     C2       5.2644   -6.9168   -1.4327 C.ar    1  LIG  -0.1318  -0.1500 
3     C3       4.8783   -5.9714   -2.3858 C.ar    1  LIG  -0.0989  -0.1500 
4     C4       4.4463   -4.6903   -1.9993 C.ar    1  LIG  -0.0443   0.0000 
5     C5       4.3951   -4.3961   -0.6250 C.ar    1  LIG  -0.1153  -0.1500 
6     C6       4.7817   -5.3421    0.3271 C.ar    1  LIG  -0.1363  -0.1500 
7     C7       4.0250   -3.6921   -3.0043 C.ar    1  LIG  -0.0257   0.0000 
8     C8       2.9221   -4.0197   -3.8250 C.ar    1  LIG  -0.1139  -0.1500 
9     C9       2.3607   -3.0943   -4.7036 C.ar    1  LIG  -0.1305  -0.1500 
10    C10      2.8815   -1.8113   -4.7753 C.ar    1  LIG  -0.1194  -0.1500 
11    C11      3.9751   -1.4608   -3.9843 C.ar    1  LIG  -0.1258  -0.1500 
12    C12      4.5781   -2.3893   -3.1118 C.ar    1  LIG   0.0655   0.1170 
13    N1       5.7330   -1.9743   -2.3857 N.am    1  LIG  -0.4385  -0.2370 
14    C13      5.8865   -0.7101   -1.8397 C.2     1  LIG   0.7253   0.5438 
15    O1       5.1332    0.2461   -1.8027 O.2     1  LIG  -0.5626  -0.5700 
16    C14      7.2037   -0.6988   -1.2075 C.ar    1  LIG  -0.1409   0.0862 
17    C15      7.8383    0.3002   -0.4970 C.ar    1  LIG  -0.0630  -0.1500 
18    C16      9.1141    0.0187   -0.0001 C.ar    1  LIG  -0.1187  -0.1500 
19    C17      9.7166   -1.2358   -0.2231 C.ar    1  LIG  -0.1164  -0.1500 
20    C18      9.0539   -2.2311   -0.9468 C.ar    1  LIG  -0.0633  -0.1500 
21    C19      7.7935   -1.9311   -1.4234 C.ar    1  LIG  -0.1363   0.0862 
22    C20      6.8724   -2.7425   -2.2156 C.2     1  LIG   0.7303   0.5438 
23    O2       7.1879   -3.8296   -2.6640 O.2     1  LIG  -0.5475  -0.5700 
24    H1       5.5186   -7.3366    0.6632 H       1  LIG   0.1296   0.1500 
25    H2       5.6033   -7.8987   -1.7505 H       1  LIG   0.1319   0.1500 
26    H3       4.9311   -6.2391   -3.4391 H       1  LIG   0.1391   0.1500 
27    H4       4.0476   -3.4235   -0.2825 H       1  LIG   0.1370   0.1500 
28    H5       4.7390   -5.0957    1.3842 H       1  LIG   0.1304   0.1500 
29    H6       2.4647   -5.0060   -3.7595 H       1  LIG   0.1407   0.1500 
30    H7       1.5087   -3.3733   -5.3164 H       1  LIG   0.1353   0.1500 
31    H8       2.4457   -1.0828   -5.4530 H       1  LIG   0.1367   0.1500 
32    H9       4.3780   -0.4570   -4.0986 H       1  LIG   0.1467   0.1500 
33    H10      7.3733    1.2645   -0.3270 H       1  LIG   0.1590   0.1500 
34    H11      9.6510    0.7762    0.5656 H       1  LIG   0.1437   0.1500 
35    H12     10.7106   -1.4289    0.1725 H       1  LIG   0.1438   0.1500 
36    H13      9.5166   -3.1955   -1.1228 H       1  LIG   0.1599   0.1500 
@<TRIPOS>BOND
1     1     6     ar
2     1     2     ar
3     1     24    1
4     2     3     ar
5     2     25    1
6     3     4     ar
7     3     26    1
8     4     5     ar
9     4     7     1
10    5     6     ar
11    5     27    1
12    6     28    1
13    7     12    ar
14    7     8     ar
15    8     9     ar
16    8     29    1
17    9     10    ar
18    9     30    1
19    10    11    ar
20    10    31    1
21    11    12    ar
22    11    32    1
23    12    13    1
24    13    22    am
25    13    14    am
26    14    15    2
27    14    16    1
28    16    21    ar
29    16    17    ar
30    17    18    ar
31    17    33    1
32    18    19    ar
33    18    34    1
34    19    20    ar
35    19    35    1
36    20    21    ar
37    20    36    1
38    21    22    1
39    22    23    2
@<TRIPOS>SUBSTRUCTURE
1   LIG    1    
 
########## Number      : 834
########## Name        : ZINC00017299
########## Description : AM1BCC_CHARGES =   0.0005 ORIGINAL_CHARGES =   0.0000

@<TRIPOS>MOLECULE
ZINC00017299
33    36    1     0     0    
SMALL
USER_CHARGES
****
****
@<TRIPOS>ATOM
1     C1       3.3823   -2.6174    0.1815 C.3     1  LIG  -0.0853   0.0000 
2     C2       2.2229   -1.6275    0.0459 C.3     1  LIG   0.0299   0.4100 
3     C3       2.3386   -0.5380    1.0492 C.2     1  LIG   0.4078   0.0065 
4     N1       2.4002   -0.5298    2.3594 N.2     1  LIG  -0.5328  -0.5653 
5     C4       2.5415    0.8065    2.6901 C.ar    1  LIG   0.0619   0.2272 
6     C5       2.6710    1.4045    3.9550 C.ar    1  LIG  -0.0658  -0.1500 
7     C6       2.8167    2.7951    4.0290 C.ar    1  LIG  -0.1551  -0.1500 
8     C7       2.8353    3.5785    2.8730 C.ar    1  LIG  -0.1081  -0.1500 
9     C8       2.7065    3.0051    1.6036 C.ar    1  LIG  -0.1341  -0.1500 
10    C9       2.5574    1.6176    1.5501 C.ar    1  LIG  -0.0360  -0.1516 
11    N2       2.3973    0.7299    0.5352 N.pl3   1  LIG  -0.1858   0.0476 
12    C10      2.3592    0.8560   -0.9110 C.3     1  LIG   0.2285   0.6291 
13    S1       2.2257   -0.8283   -1.5878 S.3     1  LIG  -0.3260  -0.4600 
14    C11      1.2217    1.7455   -1.3850 C.ar    1  LIG  -0.1821  -0.1435 
15    C12     -0.1020    1.5796   -0.9518 C.ar    1  LIG   0.1918   0.1900 
16    C13     -1.1312    2.4036   -1.4075 C.ar    1  LIG  -0.1848  -0.1500 
17    C14     -0.8536    3.4167   -2.3217 C.ar    1  LIG  -0.0666  -0.1500 
18    C15      0.4491    3.5983   -2.7780 C.ar    1  LIG  -0.1845  -0.1500 
19    C16      1.4677    2.7666   -2.3130 C.ar    1  LIG   0.1664   0.1900 
20    F1       2.7113    2.9651   -2.7758 F       1  LIG  -0.1318  -0.1900 
21    F2      -0.4104    0.6074   -0.0806 F       1  LIG  -0.1192  -0.1900 
22    H1       3.3039   -3.4204   -0.5597 H       1  LIG   0.0515   0.0000 
23    H2       4.3556   -2.1274    0.0581 H       1  LIG   0.0571   0.0000 
24    H3       3.3798   -3.0828    1.1742 H       1  LIG   0.0638   0.0000 
25    H4       1.3128   -2.2161    0.2440 H       1  LIG   0.1096   0.0000 
26    H5       2.6619    0.8020    4.8575 H       1  LIG   0.1490   0.1500 
27    H6       2.9190    3.2706    5.0012 H       1  LIG   0.1342   0.1500 
28    H7       2.9516    4.6563    2.9605 H       1  LIG   0.1332   0.1500 
29    H8       2.7200    3.6169    0.7087 H       1  LIG   0.1399   0.1500 
30    H9       3.2954    1.3651   -1.1981 H       1  LIG   0.1085   0.0000 
31    H10     -2.1456    2.2516   -1.0511 H       1  LIG   0.1592   0.1500 
32    H11     -1.6515    4.0605   -2.6804 H       1  LIG   0.1483   0.1500 
33    H12      0.6734    4.3828   -3.4945 H       1  LIG   0.1579   0.1500 
@<TRIPOS>BOND
1     1     2     1
2     1     22    1
3     1     23    1
4     1     24    1
5     2     13    1
6     2     3     1
7     2     25    1
8     3     11    1
9     3     4     2
10    4     5     1
11    5     10    ar
12    5     6     ar
13    6     7     ar
14    6     26    1
15    7     8     ar
16    7     27    1
17    8     9     ar
18    8     28    1
19    9     10    ar
20    9     29    1
21    10    11    1
22    11    12    1
23    12    13    1
24    12    14    1
25    12    30    1
26    14    19    ar
27    14    15    ar
28    15    16    ar
29    15    21    1
30    16    17    ar
31    16    31    1
32    17    18    ar
33    17    32    1
34    18    19    ar
35    18    33    1
36    19    20    1
@<TRIPOS>SUBSTRUCTURE
1   LIG    1    
 
########## Number      : 835
########## Name        : ZINC00017343
########## Description : AM1BCC_CHARGES =  -0.0002 ORIGINAL_CHARGES =   0.0000

@<TRIPOS>MOLECULE
ZINC00017343
30    32    1     0     0    
SMALL
USER_CHARGES
****
****
@<TRIPOS>ATOM
1     C1      -1.5181    8.9950    4.5112 C.ar    1  LIG  -0.1160  -0.1500 
2     C2      -0.2500    8.4237    4.4226 C.ar    1  LIG  -0.1301  -0.1500 
3     C3       0.0637    7.5774    3.3577 C.ar    1  LIG  -0.0989  -0.1500 
4     C4      -0.8913    7.2998    2.3700 C.ar    1  LIG  -0.0822   0.0284 
5     C5      -2.1656    7.8744    2.4699 C.ar    1  LIG  -0.1143  -0.1500 
6     C6      -2.4754    8.7201    3.5364 C.ar    1  LIG  -0.1343  -0.1500 
7     C7      -0.5714    6.4071    1.2472 C.2     1  LIG   0.0886  -0.0568 
8     C8       0.3637    6.6543    0.3004 C.2     1  LIG  -0.2455   0.0288 
9     C9       0.4311    5.4765   -0.6091 C.2     1  LIG   0.5959   0.4694 
10    O1       1.1625    5.3260   -1.5657 O.2     1  LIG  -0.4649  -0.5700 
11    C10     -0.5675    4.5306   -0.1441 C.ar    1  LIG  -0.1732   0.0862 
12    C11     -1.1703    5.0954    0.9694 C.ar    1  LIG  -0.0670   0.0284 
13    C12     -2.1650    4.3962    1.6349 C.ar    1  LIG  -0.0962  -0.1500 
14    C13     -2.5368    3.1368    1.1481 C.ar    1  LIG  -0.1133  -0.1500 
15    C14     -1.9135    2.5891    0.0131 C.ar    1  LIG  -0.1303  -0.1500 
16    C15     -0.9083    3.2909   -0.6507 C.ar    1  LIG  -0.0589  -0.1500 
17    C16      1.2569    7.8273    0.1595 C.2     1  LIG   0.6885   0.6156 
18    O2       2.4469    7.6930   -0.1075 O.2     1  LIG  -0.5883  -0.5700 
19    N1       0.6419    9.0448    0.2955 N.am    1  LIG  -0.6716  -0.8000 
20    H1       1.1799    9.8992    0.2016 H       1  LIG   0.3178   0.3700 
21    H2      -0.3515    9.1506    0.4692 H       1  LIG   0.3102   0.3700 
22    H3      -1.7607    9.6531    5.3407 H       1  LIG   0.1370   0.1500 
23    H4       0.4953    8.6358    5.1841 H       1  LIG   0.1405   0.1500 
24    H5       1.0572    7.1373    3.3096 H       1  LIG   0.1498   0.1500 
25    H6      -2.9256    7.6742    1.7181 H       1  LIG   0.1394   0.1500 
26    H7      -3.4643    9.1645    3.6065 H       1  LIG   0.1371   0.1500 
27    H8      -2.6523    4.8006    2.5161 H       1  LIG   0.1467   0.1500 
28    H9      -3.3160    2.5732    1.6551 H       1  LIG   0.1383   0.1500 
29    H10     -2.2174    1.6095   -0.3462 H       1  LIG   0.1403   0.1500 
30    H11     -0.4183    2.8766   -1.5242 H       1  LIG   0.1547   0.1500 
@<TRIPOS>BOND
1     1     6     ar
2     1     2     ar
3     1     22    1
4     2     3     ar
5     2     23    1
6     3     4     ar
7     3     24    1
8     4     5     ar
9     4     7     1
10    5     6     ar
11    5     25    1
12    6     26    1
13    7     12    1
14    7     8     2
15    8     9     1
16    8     17    1
17    9     10    2
18    9     11    1
19    11    16    ar
20    11    12    ar
21    12    13    ar
22    13    14    ar
23    13    27    1
24    14    15    ar
25    14    28    1
26    15    16    ar
27    15    29    1
28    16    30    1
29    17    18    2
30    17    19    am
31    19    20    1
32    19    21    1
@<TRIPOS>SUBSTRUCTURE
1   LIG    1    
 
########## Number      : 836
########## Name        : ZINC00017528
########## Description : AM1BCC_CHARGES =  -0.0000 ORIGINAL_CHARGES =   0.0000

@<TRIPOS>MOLECULE
ZINC00017528
30    32    1     0     0    
SMALL
USER_CHARGES
****
****
@<TRIPOS>ATOM
1     C1       8.6173   -7.0228    3.8279 C.3     1  LIG  -0.1179   0.0000 
2     C2       8.5613   -5.5090    3.6120 C.3     1  LIG   0.2273   0.4600 
3     C3       7.2937   -5.0845    2.9211 C.2     1  LIG  -0.1661  -0.1400 
4     C4       7.1726   -4.5626    1.6464 C.2     1  LIG  -0.0946  -0.1500 
5     C5       5.8205   -4.2629    1.2943 C.2     1  LIG  -0.1612  -0.0860 
6     C6       4.9548   -4.5729    2.3297 C.2     1  LIG  -0.2124  -0.0450 
7     S1       5.7613   -5.2078    3.6858 S.3     1  LIG   0.2513  -0.0800 
8     C7       3.5124   -4.3994    2.3219 C.2     1  LIG   0.6426   0.7410 
9     O1       2.7524   -4.6764    3.2426 O.2     1  LIG  -0.5282  -0.5700 
10    C8       3.0378   -3.8390    1.0553 C.2     1  LIG  -0.1589  -0.0860 
11    C9       1.6848   -3.5395    0.7045 C.2     1  LIG  -0.1023  -0.1500 
12    C10      1.5772   -3.0204   -0.5673 C.2     1  LIG  -0.2087  -0.1100 
13    S2       3.0981   -2.8925   -1.3401 S.3     1  LIG   0.2006  -0.0800 
14    C11      3.9049   -3.5288    0.0187 C.2     1  LIG  -0.2009  -0.0450 
15    C12      5.3471   -3.7027    0.0273 C.2     1  LIG   0.6426   0.7410 
16    O2       6.1078   -3.4264   -0.8931 O.2     1  LIG  -0.5279  -0.5700 
17    O3       8.6043   -4.8406    4.8815 O.3     1  LIG  -0.4544  -0.4300 
18    C13      9.8336   -4.6154    5.4240 C.2     1  LIG   0.6395   0.6590 
19    O4      10.9111   -4.9281    4.9370 O.2     1  LIG  -0.5393  -0.5700 
20    C14      9.6786   -3.9129    6.7385 C.3     1  LIG  -0.1507   0.0610 
21    H1       9.5741   -7.3123    4.2754 H       1  LIG   0.0622   0.0000 
22    H2       7.8385   -7.3602    4.5210 H       1  LIG   0.0450   0.0000 
23    H3       8.5005   -7.5653    2.8840 H       1  LIG   0.0561   0.0000 
24    H4       9.4232   -5.2344    2.9825 H       1  LIG   0.0890   0.0000 
25    H5       8.0212   -4.4021    0.9918 H       1  LIG   0.1770   0.1500 
26    H6       0.8311   -3.6965    1.3524 H       1  LIG   0.1758   0.1500 
27    H7       0.6770   -2.7102   -1.0792 H       1  LIG   0.1812   0.1500 
28    H8      10.6667   -3.7294    7.1703 H       1  LIG   0.0783   0.0000 
29    H9       9.1805   -2.9517    6.5888 H       1  LIG   0.0783   0.0000 
30    H10      9.1079   -4.5395    7.4285 H       1  LIG   0.0767   0.0000 
@<TRIPOS>BOND
1     1     2     1
2     1     21    1
3     1     22    1
4     1     23    1
5     2     3     1
6     2     17    1
7     2     24    1
8     3     7     1
9     3     4     2
10    4     5     1
11    4     25    1
12    5     15    1
13    5     6     2
14    6     7     1
15    6     8     1
16    8     9     2
17    8     10    1
18    10    14    2
19    10    11    1
20    11    12    2
21    11    26    1
22    12    13    1
23    12    27    1
24    13    14    1
25    14    15    1
26    15    16    2
27    17    18    1
28    18    19    2
29    18    20    1
30    20    28    1
31    20    29    1
32    20    30    1
@<TRIPOS>SUBSTRUCTURE
1   LIG    1    
 
########## Number      : 837
########## Name        : ZINC00017529
########## Description : AM1BCC_CHARGES =   0.0002 ORIGINAL_CHARGES =   0.0000

@<TRIPOS>MOLECULE
ZINC00017529
23    25    1     0     0    
SMALL
USER_CHARGES
****
****
@<TRIPOS>ATOM
1     C1       5.8204   -9.2246   -1.3152 C.3     1  LIG  -0.2072   0.0610 
2     C2       5.7054   -8.5211    0.0178 C.2     1  LIG   0.6060   0.5940 
3     O1       6.0701   -9.1119    1.0363 O.2     1  LIG  -0.5127  -0.5700 
4     C3       5.1678   -7.1673    0.0612 C.2     1  LIG  -0.2549  -0.0450 
5     C4       4.9974   -6.3890    1.1923 C.2     1  LIG  -0.0372  -0.1500 
6     C5       4.4455   -5.1030    0.9045 C.2     1  LIG  -0.1731  -0.0860 
7     C6       4.2147   -4.9518   -0.4522 C.2     1  LIG  -0.1849  -0.0450 
8     S1       4.6568   -6.3321   -1.3419 S.3     1  LIG   0.2281  -0.0800 
9     C7       3.6606   -3.7741   -1.1035 C.2     1  LIG   0.6553   0.7400 
10    O2       3.4659   -3.6658   -2.3095 O.2     1  LIG  -0.5324  -0.5700 
11    C8       3.3711   -2.7439   -0.1168 C.2     1  LIG  -0.2077  -0.0450 
12    C9       3.5807   -2.8390    1.2506 C.2     1  LIG  -0.1529  -0.0860 
13    C10      3.1841   -1.6406    1.9205 C.2     1  LIG  -0.1037  -0.1500 
14    C11      2.6945   -0.6928    1.0486 C.2     1  LIG  -0.2036  -0.1100 
15    S2       2.7109   -1.2404   -0.5722 S.3     1  LIG   0.2036  -0.0800 
16    C12      4.1403   -4.0426    1.8630 C.2     1  LIG   0.6261   0.7420 
17    O3       4.3354   -4.1523    3.0672 O.2     1  LIG  -0.5107  -0.5700 
18    H1       6.2405  -10.2238   -1.1617 H       1  LIG   0.0784   0.0000 
19    H2       4.8336   -9.3399   -1.7712 H       1  LIG   0.0649   0.0000 
20    H3       6.4924   -8.6745   -1.9792 H       1  LIG   0.0646   0.0000 
21    H4       5.2583   -6.7280    2.1883 H       1  LIG   0.1934   0.1500 
22    H5       3.2537   -1.4801    2.9894 H       1  LIG   0.1780   0.1500 
23    H6       2.3278    0.2958    1.2869 H       1  LIG   0.1828   0.1500 
@<TRIPOS>BOND
1     1     2     1
2     1     18    1
3     1     19    1
4     1     20    1
5     2     3     2
6     2     4     1
7     4     8     1
8     4     5     2
9     5     6     1
10    5     21    1
11    6     16    1
12    6     7     2
13    7     8     1
14    7     9     1
15    9     10    2
16    9     11    1
17    11    15    1
18    11    12    2
19    12    13    1
20    12    16    1
21    13    14    2
22    13    22    1
23    14    15    1
24    14    23    1
25    16    17    2
@<TRIPOS>SUBSTRUCTURE
1   LIG    1    
 
########## Number      : 838
########## Name        : ZINC00017725
########## Description : AM1BCC_CHARGES =   0.9998 ORIGINAL_CHARGES =   1.0000

@<TRIPOS>MOLECULE
ZINC00017725
25    27    1     0     0    
SMALL
USER_CHARGES
****
****
@<TRIPOS>ATOM
1     C1      -1.4438    5.0372    3.6890 C.ar    1  LIG  -0.0284  -0.1500 
2     C2      -2.1390    3.9576    3.1941 C.ar    1  LIG  -0.1306  -0.1500 
3     C3      -1.4729    2.9990    2.4413 C.ar    1  LIG  -0.0664   0.2110 
4     N1      -0.1361    3.0661    2.1562 N.ar    1  LIG   0.0550  -0.0830 
5     C4       0.5577    4.1509    2.6547 C.ar    1  LIG   0.1143   0.3610 
6     C5      -0.0924    5.1316    3.4172 C.ar    1  LIG  -0.1470  -0.1500 
7     C6       1.9122    4.2942    2.4122 C.ar    1  LIG  -0.2388  -0.1500 
8     C7       2.5856    3.3482    1.6653 C.ar    1  LIG   0.2580   0.0825 
9     C8       1.9258    2.2221    1.1331 C.ar    1  LIG  -0.0973   0.0000 
10    C9       0.5248    2.1005    1.4003 C.ar    1  LIG   0.0382   0.3610 
11    C10     -0.1540    0.9718    0.8711 C.ar    1  LIG  -0.1420  -0.1500 
12    C11      0.4857   -0.0063    0.1127 C.ar    1  LIG  -0.0533  -0.1500 
13    C12      1.8353    0.1042   -0.1488 C.ar    1  LIG  -0.0963  -0.1500 
14    C13      2.5490    1.1959    0.3491 C.ar    1  LIG   0.0412   0.1770 
15    Cl1      4.2375    1.2013   -0.0599 Cl      1  LIG  -0.0221  -0.1770 
16    O1       3.9188    3.6182    1.5060 O.3     1  LIG  -0.4528  -0.5325 
17    H1       4.3311    2.9186    0.9746 H       1  LIG   0.4647   0.4500 
18    H2      -1.9448    5.7976    4.2796 H       1  LIG   0.1873   0.1500 
19    H3      -3.2023    3.8539    3.3899 H       1  LIG   0.1932   0.1500 
20    H4      -2.0552    2.1662    2.0707 H       1  LIG   0.1961   0.1500 
21    H5       0.4570    5.9860    3.8091 H       1  LIG   0.1921   0.1500 
22    H6       2.4598    5.1494    2.8050 H       1  LIG   0.2052   0.1500 
23    H7      -1.2139    0.8004    1.0244 H       1  LIG   0.1625   0.1500 
24    H8      -0.0773   -0.8528   -0.2710 H       1  LIG   0.1793   0.1500 
25    H9       2.3243   -0.6650   -0.7418 H       1  LIG   0.1877   0.1500 
@<TRIPOS>BOND
1     1     6     ar
2     1     2     ar
3     1     18    1
4     2     3     ar
5     2     19    1
6     3     4     ar
7     3     20    1
8     4     10    ar
9     4     5     ar
10    5     6     ar
11    5     7     ar
12    6     21    1
13    7     8     ar
14    7     22    1
15    8     9     ar
16    8     16    1
17    9     14    ar
18    9     10    ar
19    10    11    ar
20    11    12    ar
21    11    23    1
22    12    13    ar
23    12    24    1
24    13    14    ar
25    13    25    1
26    14    15    1
27    16    17    1
@<TRIPOS>SUBSTRUCTURE
1   LIG    1    
 
########## Number      : 839
########## Name        : ZINC00017881
########## Description : AM1BCC_CHARGES =  -0.0001 ORIGINAL_CHARGES =   0.0000

@<TRIPOS>MOLECULE
ZINC00017881
30    32    1     0     0    
SMALL
USER_CHARGES
****
****
@<TRIPOS>ATOM
1     C1       5.6220   -9.2606   -0.3836 C.ar    1  LIG  -0.1096  -0.1500 
2     C2       6.5936   -8.2693   -0.4950 C.ar    1  LIG  -0.1361  -0.1500 
3     C3       6.4640   -7.0773    0.2219 C.ar    1  LIG  -0.0894  -0.1500 
4     C4       5.3563   -6.8582    1.0562 C.ar    1  LIG  -0.0757   0.0284 
5     C5       4.3895   -7.8706    1.1640 C.ar    1  LIG  -0.0982  -0.1500 
6     C6       4.5215   -9.0623    0.4465 C.ar    1  LIG  -0.1343  -0.1500 
7     C7       5.2429   -5.5982    1.8174 C.2     1  LIG   0.1831   0.0483 
8     C8       4.0787   -4.9432    1.9305 C.2     1  LIG  -0.3080  -0.1356 
9     C9       4.0230   -3.6818    2.6957 C.2     1  LIG   0.5958   0.4694 
10    O1       2.9659   -3.0763    2.8066 O.2     1  LIG  -0.5168  -0.5700 
11    C10      5.2923   -3.2195    3.2968 C.ar    1  LIG  -0.2513   0.0862 
12    C11      6.4375   -3.9973    3.0944 C.ar    1  LIG   0.1859   0.0825 
13    O2       6.4353   -5.1630    2.3684 O.3     1  LIG  -0.2231  -0.1592 
14    C12      7.6681   -3.6119    3.6359 C.ar    1  LIG  -0.2538  -0.1500 
15    C13      7.7499   -2.4414    4.3843 C.ar    1  LIG   0.1419   0.0825 
16    C14      6.6155   -1.6617    4.5909 C.ar    1  LIG  -0.0302   0.0825 
17    C15      5.3867   -2.0447    4.0508 C.ar    1  LIG   0.2249   0.0825 
18    O3       4.2883   -1.2600    4.2694 O.3     1  LIG  -0.4462  -0.5325 
19    O4       6.6834   -0.5087    5.3250 O.3     1  LIG  -0.5118  -0.5325 
20    O5       8.9353   -2.0342    4.9286 O.3     1  LIG  -0.5070  -0.5325 
21    H1       4.5715   -0.5014    4.8108 H       1  LIG   0.4432   0.4500 
22    H2       7.6079   -0.4066    5.6156 H       1  LIG   0.4466   0.4500 
23    H3       9.6235   -2.6812    4.6957 H       1  LIG   0.4384   0.4500 
24    H4       5.7237  -10.1875   -0.9405 H       1  LIG   0.1364   0.1500 
25    H5       7.4541   -8.4225   -1.1403 H       1  LIG   0.1377   0.1500 
26    H6       7.2361   -6.3185    0.1134 H       1  LIG   0.1455   0.1500 
27    H7       3.5261   -7.7512    1.8147 H       1  LIG   0.1433   0.1500 
28    H8       3.7654   -9.8369    0.5394 H       1  LIG   0.1387   0.1500 
29    H9       3.1554   -5.2855    1.4771 H       1  LIG   0.1702   0.1500 
30    H10      8.5488   -4.2264    3.4699 H       1  LIG   0.1598   0.1500 
@<TRIPOS>BOND
1     1     6     ar
2     1     2     ar
3     1     24    1
4     2     3     ar
5     2     25    1
6     3     4     ar
7     3     26    1
8     4     5     ar
9     4     7     1
10    5     6     ar
11    5     27    1
12    6     28    1
13    7     13    1
14    7     8     2
15    8     9     1
16    8     29    1
17    9     10    2
18    9     11    1
19    11    17    ar
20    11    12    ar
21    12    13    1
22    12    14    ar
23    14    15    ar
24    14    30    1
25    15    16    ar
26    15    20    1
27    16    17    ar
28    16    19    1
29    17    18    1
30    18    21    1
31    19    22    1
32    20    23    1
@<TRIPOS>SUBSTRUCTURE
1   LIG    1    
 
########## Number      : 840
########## Name        : ZINC00017883
########## Description : AM1BCC_CHARGES =  -0.0002 ORIGINAL_CHARGES =  -0.0000

@<TRIPOS>MOLECULE
ZINC00017883
29    31    1     0     0    
SMALL
USER_CHARGES
****
****
@<TRIPOS>ATOM
1     C1       0.3183   12.1305    7.1113 C.2     1  LIG   0.4042   0.0365 
2     N1       0.5227   12.6118    8.3213 N.2     1  LIG  -0.5776  -0.5653 
3     C2       1.2240   11.6278    8.9543 C.2     1  LIG   0.1694   0.1412 
4     C3       1.7215   11.6036   10.3038 C.2     1  LIG   0.6528   0.7160 
5     O1       1.5742   12.5163   11.1075 O.2     1  LIG  -0.5944  -0.5700 
6     N2       2.3908   10.4056   10.5737 N.am    1  LIG  -0.5136  -0.4900 
7     C4       2.5624    9.3511    9.6577 C.2     1  LIG   0.7022   0.5600 
8     N3       2.0990    9.3930    8.4301 N.2     1  LIG  -0.6867  -0.5760 
9     C5       1.4483   10.5435    8.1378 C.2     1  LIG   0.1299  -0.0256 
10    N4       0.8617   10.8779    6.9487 N.pl3   1  LIG  -0.2252   0.0476 
11    C6       0.7986   10.0957    5.7294 C.3     1  LIG   0.2413   0.5356 
12    C7      -0.0609    8.8583    5.8418 C.3     1  LIG   0.1050   0.2800 
13    O2       0.4799    8.0120    4.8272 O.3     1  LIG  -0.4273  -0.5600 
14    C8       1.8591    8.3894    4.7083 C.3     1  LIG   0.3286   0.5600 
15    O3       2.0883    9.6294    5.3877 O.3     1  LIG  -0.4411  -0.5600 
16    C9       2.7409    7.3092    5.3321 C.3     1  LIG   0.0965   0.2800 
17    O4       4.1048    7.5648    5.0233 O.3     1  LIG  -0.5988  -0.6800 
18    N5       3.2485    8.2666   10.1284 N.pl3   1  LIG  -0.9152  -0.8500 
19    H1       2.7790   10.2958   11.5037 H       1  LIG   0.3337   0.3700 
20    H2       4.6303    6.8704    5.4560 H       1  LIG   0.4037   0.4000 
21    H3       3.6099    8.2278   11.0738 H       1  LIG   0.4237   0.4000 
22    H4       3.4162    7.4660    9.5297 H       1  LIG   0.4436   0.4000 
23    H5      -0.2118   12.6397    6.3174 H       1  LIG   0.0696   0.1500 
24    H6       0.3891   10.7476    4.9416 H       1  LIG   0.0921   0.0000 
25    H7       0.0405    8.3412    6.8017 H       1  LIG   0.0816   0.0000 
26    H8      -1.1218    9.0505    5.6579 H       1  LIG   0.0750   0.0000 
27    H9       2.1193    8.4877    3.6437 H       1  LIG   0.1017   0.0000 
28    H10      2.6300    7.2945    6.4213 H       1  LIG   0.0570   0.0000 
29    H11      2.4710    6.3208    4.9461 H       1  LIG   0.0681   0.0000 
@<TRIPOS>BOND
1     1     10    1
2     1     2     2
3     1     23    1
4     2     3     1
5     3     9     2
6     3     4     1
7     4     5     2
8     4     6     am
9     6     7     1
10    6     19    1
11    7     8     2
12    7     18    1
13    8     9     1
14    9     10    1
15    10    11    1
16    11    15    1
17    11    12    1
18    11    24    1
19    12    13    1
20    12    25    1
21    12    26    1
22    13    14    1
23    14    15    1
24    14    16    1
25    14    27    1
26    16    17    1
27    16    28    1
28    16    29    1
29    17    20    1
30    18    21    1
31    18    22    1
@<TRIPOS>SUBSTRUCTURE
1   LIG    1    
 
########## Number      : 841
########## Name        : ZINC00018042
########## Description : AM1BCC_CHARGES =   1.0001 ORIGINAL_CHARGES =   1.0000

@<TRIPOS>MOLECULE
ZINC00018042
35    36    1     0     0    
SMALL
USER_CHARGES
****
****
@<TRIPOS>ATOM
1     C1       5.0385   -8.4161    0.2823 C.ar    1  LIG  -0.0858  -0.1500 
2     C2       4.1518   -8.4320    1.3558 C.ar    1  LIG  -0.1117  -0.1500 
3     C3       3.6654   -7.2325    1.8789 C.ar    1  LIG  -0.0939  -0.1500 
4     C4       4.0647   -5.9982    1.3389 C.ar    1  LIG  -0.1636  -0.1435 
5     C5       4.9515   -5.9999    0.2506 C.ar    1  LIG  -0.1257  -0.1500 
6     C6       5.4366   -7.2015   -0.2708 C.ar    1  LIG  -0.1095  -0.1500 
7     C7       3.4998   -4.7094    1.9207 C.3     1  LIG   0.2629   0.7900 
8     C8       2.2417   -4.2590    1.1960 C.ar    1  LIG  -0.1668  -0.1435 
9     C9       2.2943   -3.6644   -0.0747 C.ar    1  LIG  -0.1165  -0.1500 
10    C10      1.1233   -3.2663   -0.7228 C.ar    1  LIG  -0.1128  -0.1500 
11    C11     -0.1140   -3.4604   -0.1133 C.ar    1  LIG  -0.0857  -0.1500 
12    C12     -0.1827   -4.0550    1.1441 C.ar    1  LIG  -0.1159  -0.1500 
13    C13      0.9864   -4.4539    1.7944 C.ar    1  LIG  -0.1025  -0.1500 
14    C14      4.1620   -2.4545    2.9202 C.3     1  LIG   0.0124   0.5640 
15    C15      5.3006   -1.4671    3.0266 C.2     1  LIG   0.6449   0.5690 
16    O1       6.3871   -1.6319    2.4791 O.2     1  LIG  -0.6000  -0.5700 
17    N1       4.9958   -0.3701    3.7970 N.am    1  LIG  -0.6293  -0.8000 
18    H1       5.6839    0.3617    3.9407 H       1  LIG   0.3549   0.3700 
19    H2       4.0940   -0.2431    4.2446 H       1  LIG   0.3301   0.3700 
20    H3       5.4159   -9.3494   -0.1255 H       1  LIG   0.1606   0.1500 
21    H4       3.8361   -9.3787    1.7850 H       1  LIG   0.1596   0.1500 
22    H5       2.9689   -7.2701    2.7135 H       1  LIG   0.1424   0.1500 
23    H6       5.2744   -5.0705   -0.2103 H       1  LIG   0.1231   0.1500 
24    H7       6.1237   -7.1889   -1.1123 H       1  LIG   0.1576   0.1500 
25    H8       3.2410   -4.9235    2.9667 H       1  LIG   0.0998   0.0000 
26    H9       3.2445   -3.5052   -0.5774 H       1  LIG   0.1307   0.1500 
27    H10      1.1770   -2.8065   -1.7057 H       1  LIG   0.1586   0.1500 
28    H11     -1.0241   -3.1513   -0.6194 H       1  LIG   0.1604   0.1500 
29    H12     -1.1476   -4.2104    1.6187 H       1  LIG   0.1592   0.1500 
30    H13      0.9072   -4.9199    2.7739 H       1  LIG   0.1406   0.1500 
31    H14      3.2937   -1.9689    2.4660 H       1  LIG   0.1296   0.0000 
32    H15      3.9153   -2.8458    3.9118 H       1  LIG   0.1191   0.0000 
33    N2       4.5464   -3.6190    2.0556 N.4     1  LIG  -0.7537  -0.9060 
34    H16      5.4036   -4.0353    2.4464 H       1  LIG   0.4674   0.4500 
35    H17      4.8152   -3.2682    1.1269 H       1  LIG   0.4596   0.4500 
@<TRIPOS>BOND
1     1     6     ar
2     1     2     ar
3     1     20    1
4     2     3     ar
5     2     21    1
6     3     4     ar
7     3     22    1
8     4     5     ar
9     4     7     1
10    5     6     ar
11    5     23    1
12    6     24    1
13    7     8     1
14    7     25    1
15    7     33    1
16    8     13    ar
17    8     9     ar
18    9     10    ar
19    9     26    1
20    10    11    ar
21    10    27    1
22    11    12    ar
23    11    28    1
24    12    13    ar
25    12    29    1
26    13    30    1
27    14    15    1
28    14    31    1
29    14    32    1
30    14    33    1
31    15    16    2
32    15    17    am
33    17    18    1
34    17    19    1
35    33    34    1
36    33    35    1
@<TRIPOS>SUBSTRUCTURE
1   LIG    1    
 
########## Number      : 842
########## Name        : ZINC00018079
########## Description : AM1BCC_CHARGES =   1.0000 ORIGINAL_CHARGES =   1.0000

@<TRIPOS>MOLECULE
ZINC00018079
26    26    1     0     0    
SMALL
USER_CHARGES
****
****
@<TRIPOS>ATOM
1     C1       1.4762    0.0575    0.4596 C.3     1  LIG  -0.1333   0.0000 
2     C2       2.4722   -0.4979    1.4812 C.3     1  LIG   0.1143   0.5030 
3     C3       2.1394   -1.9625    1.8508 C.3     1  LIG   0.1916   0.4235 
4     C4       3.1112   -2.5487    2.8644 C.ar    1  LIG  -0.1828  -0.1435 
5     C5       4.4711   -2.7119    2.5525 C.ar    1  LIG  -0.1557  -0.1500 
6     C6       5.3583   -3.2429    3.4909 C.ar    1  LIG  -0.0864  -0.1500 
7     C7       4.8996   -3.6199    4.7506 C.ar    1  LIG  -0.1187  -0.1500 
8     C8       3.5527   -3.4661    5.0635 C.ar    1  LIG   0.1438   0.0825 
9     C9       2.6569   -2.9363    4.1342 C.ar    1  LIG  -0.2261  -0.1500 
10    O1       3.1340   -3.8489    6.3066 O.3     1  LIG  -0.4726  -0.5325 
11    O2       2.1795   -2.7510    0.6693 O.3     1  LIG  -0.5839  -0.6800 
12    H1       2.1752   -3.7022    6.3735 H       1  LIG   0.4333   0.4500 
13    H2       2.1721   -3.6891    0.9275 H       1  LIG   0.4478   0.4000 
14    H3       3.1163    0.0648    3.3926 H       1  LIG   0.4706   0.4500 
15    H4       2.6032    1.3352    2.4723 H       1  LIG   0.4588   0.4500 
16    H5       1.5203   -0.5029   -0.4800 H       1  LIG   0.1253   0.0000 
17    H6       0.4486    0.0070    0.8362 H       1  LIG   0.0653   0.0000 
18    H7       1.6996    1.1049    0.2287 H       1  LIG   0.0669   0.0000 
19    H8       3.4721   -0.4302    1.0228 H       1  LIG   0.1238   0.0000 
20    H9       1.1290   -1.9993    2.2912 H       1  LIG   0.0700   0.0000 
21    H10      4.8497   -2.4306    1.5725 H       1  LIG   0.1515   0.1500 
22    H11      6.4077   -3.3644    3.2370 H       1  LIG   0.1641   0.1500 
23    H12      5.5918   -4.0337    5.4784 H       1  LIG   0.1796   0.1500 
24    H13      1.6080   -2.8244    4.3967 H       1  LIG   0.1419   0.1500 
25    N1       2.4142    0.3486    2.6957 N.4     1  LIG  -0.8411  -0.8530 
26    H14      1.4927    0.3102    3.1519 H       1  LIG   0.4520   0.4500 
@<TRIPOS>BOND
1     1     2     1
2     1     16    1
3     1     17    1
4     1     18    1
5     2     3     1
6     2     19    1
7     2     25    1
8     3     4     1
9     3     11    1
10    3     20    1
11    4     9     ar
12    4     5     ar
13    5     6     ar
14    5     21    1
15    6     7     ar
16    6     22    1
17    7     8     ar
18    7     23    1
19    8     9     ar
20    8     10    1
21    9     24    1
22    10    12    1
23    11    13    1
24    14    25    1
25    15    25    1
26    25    26    1
@<TRIPOS>SUBSTRUCTURE
1   LIG    1    
 
########## Number      : 843
########## Name        : ZINC00018168
########## Description : AM1BCC_CHARGES =  -0.0001 ORIGINAL_CHARGES =  -0.0000

@<TRIPOS>MOLECULE
ZINC00018168
33    35    1     0     0    
SMALL
USER_CHARGES
****
****
@<TRIPOS>ATOM
1     C1       6.3338  -10.7127   -0.5130 C.ar    1  LIG  -0.1548  -0.1500 
2     C2       5.3257   -9.8411   -0.9133 C.ar    1  LIG  -0.1050  -0.1500 
3     C3       5.0528   -8.6968   -0.1607 C.ar    1  LIG  -0.1832  -0.1500 
4     C4       5.7864   -8.4093    1.0004 C.ar    1  LIG   0.0661   0.1170 
5     C5       6.7949   -9.2934    1.3953 C.ar    1  LIG  -0.1502  -0.1500 
6     C6       7.0661  -10.4390    0.6397 C.ar    1  LIG  -0.1049  -0.1500 
7     N1       5.4391   -7.2291    1.7017 N.am    1  LIG  -0.4722  -0.5470 
8     C7       6.0492   -6.7184    2.8396 C.2     1  LIG   0.5852   0.5438 
9     O1       7.0418   -7.1574    3.4109 O.2     1  LIG  -0.5530  -0.5700 
10    C8       5.4302   -5.4818    3.3867 C.ar    1  LIG   0.3377   0.3962 
11    C9       4.0638   -5.2399    3.3148 C.ar    1  LIG  -0.1902  -0.1500 
12    C10      3.5584   -4.0548    3.8675 C.ar    1  LIG  -0.0291   0.0000 
13    C11      2.1823   -3.7726    3.8108 C.ar    1  LIG  -0.1138  -0.1500 
14    C12      1.6670   -2.5980    4.3560 C.ar    1  LIG  -0.1070  -0.1500 
15    C13      2.5269   -1.6950    4.9644 C.ar    1  LIG   0.1205   0.0825 
16    C14      3.8978   -1.9502    5.0369 C.ar    1  LIG   0.0334   0.0825 
17    C15      4.4382   -3.1385    4.4894 C.ar    1  LIG  -0.1560   0.0000 
18    C16      5.7940   -3.5040    4.5102 C.ar    1  LIG   0.4128   0.1600 
19    N2       6.3030   -4.6422    3.9840 N.ar    1  LIG  -0.6115  -0.6200 
20    O2       4.6580   -0.9942    5.6594 O.3     1  LIG  -0.5116  -0.5325 
21    O3       1.9939   -0.5505    5.4904 O.3     1  LIG  -0.4865  -0.5325 
22    H1       4.6755   -6.7000    1.2903 H       1  LIG   0.3196   0.3700 
23    H2       5.5931   -1.2489    5.6545 H       1  LIG   0.4303   0.4500 
24    H3       2.7305   -0.0406    5.8731 H       1  LIG   0.4416   0.4500 
25    H4       6.5482  -11.6034   -1.0960 H       1  LIG   0.1332   0.1500 
26    H5       4.7507  -10.0503   -1.8108 H       1  LIG   0.1313   0.1500 
27    H6       4.2597   -8.0316   -0.4949 H       1  LIG   0.1271   0.1500 
28    H7       7.3902   -9.1322    2.2866 H       1  LIG   0.1714   0.1500 
29    H8       7.8522  -11.1196    0.9556 H       1  LIG   0.1354   0.1500 
30    H9       3.3876   -5.9581    2.8602 H       1  LIG   0.1515   0.1500 
31    H10      1.4944   -4.4706    3.3368 H       1  LIG   0.1453   0.1500 
32    H11      0.6011   -2.3966    4.3021 H       1  LIG   0.1612   0.1500 
33    H12      6.5514   -2.8755    4.9680 H       1  LIG   0.0253   0.1500 
@<TRIPOS>BOND
1     1     6     ar
2     1     2     ar
3     1     25    1
4     2     3     ar
5     2     26    1
6     3     4     ar
7     3     27    1
8     4     5     ar
9     4     7     1
10    5     6     ar
11    5     28    1
12    6     29    1
13    7     8     am
14    7     22    1
15    8     9     2
16    8     10    1
17    10    19    ar
18    10    11    ar
19    11    12    ar
20    11    30    1
21    12    17    ar
22    12    13    ar
23    13    14    ar
24    13    31    1
25    14    15    ar
26    14    32    1
27    15    16    ar
28    15    21    1
29    16    17    ar
30    16    20    1
31    17    18    ar
32    18    19    ar
33    18    33    1
34    20    23    1
35    21    24    1
@<TRIPOS>SUBSTRUCTURE
1   LIG    1    
 
########## Number      : 844
########## Name        : ZINC00018169
########## Description : AM1BCC_CHARGES =   0.0002 ORIGINAL_CHARGES =   0.0000

@<TRIPOS>MOLECULE
ZINC00018169
36    38    1     0     0    
SMALL
USER_CHARGES
****
****
@<TRIPOS>ATOM
1     C1       5.3013    2.0697    3.6782 C.ar    1  LIG  -0.1227  -0.1500 
2     C2       4.8553    0.8575    3.1546 C.ar    1  LIG  -0.1327  -0.1500 
3     C3       3.5502    0.7413    2.6734 C.ar    1  LIG  -0.1196  -0.1500 
4     C4       2.6771    1.8366    2.7185 C.ar    1  LIG  -0.1150  -0.1435 
5     C5       3.1385    3.0538    3.2381 C.ar    1  LIG  -0.1112  -0.1500 
6     C6       4.4439    3.1678    3.7188 C.ar    1  LIG  -0.1333  -0.1500 
7     C7       1.2808    1.7224    2.1763 C.3     1  LIG   0.1375   0.4436 
8     N1       1.2115    2.1115    0.7805 N.am    1  LIG  -0.5744  -0.7301 
9     C8      -0.0034    2.2629    0.1313 C.2     1  LIG   0.5761   0.5438 
10    O1      -1.0976    2.0706    0.6553 O.2     1  LIG  -0.5754  -0.5700 
11    C9       0.0566    2.6595   -1.2995 C.ar    1  LIG   0.3577   0.3962 
12    C10      1.1210    3.3793   -1.8325 C.ar    1  LIG  -0.2073  -0.1500 
13    C11      1.0899    3.7200   -3.1923 C.ar    1  LIG  -0.0159   0.0000 
14    C12      2.1379    4.4437   -3.7896 C.ar    1  LIG  -0.1238  -0.1500 
15    C13      2.0995    4.7787   -5.1447 C.ar    1  LIG  -0.1353  -0.1500 
16    C14      1.0086    4.3924   -5.9152 C.ar    1  LIG   0.0204   0.0825 
17    C15     -0.0415    3.6766   -5.3419 C.ar    1  LIG   0.1374   0.0825 
18    C16     -0.0166    3.3319   -3.9768 C.ar    1  LIG  -0.1511   0.0000 
19    C17     -1.0338    2.6214   -3.3295 C.ar    1  LIG   0.4444   0.1600 
20    N2      -1.0245    2.2835   -2.0202 N.ar    1  LIG  -0.6277  -0.6200 
21    O2      -1.1112    3.3041   -6.1136 O.3     1  LIG  -0.4889  -0.5325 
22    O3       0.9415    4.7051   -7.2445 O.3     1  LIG  -0.5145  -0.5325 
23    H1       2.0833    2.1935    0.2687 H       1  LIG   0.3155   0.3700 
24    H2      -0.9448    3.6311   -7.0162 H       1  LIG   0.4441   0.4500 
25    H3       1.7424    5.2008   -7.4876 H       1  LIG   0.4316   0.4500 
26    H4       6.3172    2.1593    4.0520 H       1  LIG   0.1328   0.1500 
27    H5       5.5245    0.0026    3.1190 H       1  LIG   0.1334   0.1500 
28    H6       3.2189   -0.2092    2.2624 H       1  LIG   0.1343   0.1500 
29    H7       2.4828    3.9205    3.2708 H       1  LIG   0.1393   0.1500 
30    H8       4.7924    4.1139    4.1230 H       1  LIG   0.1338   0.1500 
31    H9       0.9139    0.6924    2.2580 H       1  LIG   0.0466   0.0000 
32    H10      0.5890    2.3481    2.7531 H       1  LIG   0.0842   0.0000 
33    H11      1.9568    3.6961   -1.2164 H       1  LIG   0.1495   0.1500 
34    H12      2.9990    4.7533   -3.2002 H       1  LIG   0.1438   0.1500 
35    H13      2.9229    5.3373   -5.5801 H       1  LIG   0.1398   0.1500 
36    H14     -1.9203    2.2915   -3.8647 H       1  LIG   0.0468   0.1500 
@<TRIPOS>BOND
1     1     6     ar
2     1     2     ar
3     1     26    1
4     2     3     ar
5     2     27    1
6     3     4     ar
7     3     28    1
8     4     5     ar
9     4     7     1
10    5     6     ar
11    5     29    1
12    6     30    1
13    7     8     1
14    7     31    1
15    7     32    1
16    8     9     am
17    8     23    1
18    9     10    2
19    9     11    1
20    11    20    ar
21    11    12    ar
22    12    13    ar
23    12    33    1
24    13    18    ar
25    13    14    ar
26    14    15    ar
27    14    34    1
28    15    16    ar
29    15    35    1
30    16    17    ar
31    16    22    1
32    17    18    ar
33    17    21    1
34    18    19    ar
35    19    20    ar
36    19    36    1
37    21    24    1
38    22    25    1
@<TRIPOS>SUBSTRUCTURE
1   LIG    1    
 
########## Number      : 845
########## Name        : ZINC00018170
########## Description : AM1BCC_CHARGES =   0.0001 ORIGINAL_CHARGES =   0.0000

@<TRIPOS>MOLECULE
ZINC00018170
39    41    1     0     0    
SMALL
USER_CHARGES
****
****
@<TRIPOS>ATOM
1     C1      -0.0535   -4.5107   -6.7209 C.ar    1  LIG  -0.1307  -0.1500 
2     C2       0.2514   -3.1607   -6.5561 C.ar    1  LIG  -0.1303  -0.1500 
3     C3       1.1834   -2.7664   -5.5947 C.ar    1  LIG  -0.1288  -0.1500 
4     C4       1.8154   -3.7206   -4.7862 C.ar    1  LIG  -0.0804  -0.1435 
5     C5       1.5067   -5.0760   -4.9643 C.ar    1  LIG  -0.1247  -0.1500 
6     C6       0.5745   -5.4681   -5.9262 C.ar    1  LIG  -0.1280  -0.1500 
7     C7       2.8356   -3.2996   -3.7607 C.3     1  LIG  -0.0640   0.1435 
8     C8       4.2496   -3.3027   -4.3380 C.3     1  LIG   0.1029   0.3001 
9     N1       5.2265   -2.8771   -3.3509 N.am    1  LIG  -0.5768  -0.7301 
10    C9       5.7646   -3.7523   -2.4199 C.2     1  LIG   0.5697   0.5438 
11    O1       5.4971   -4.9496   -2.3562 O.2     1  LIG  -0.5732  -0.5700 
12    C10      6.7443   -3.1785   -1.4613 C.ar    1  LIG   0.3679   0.3962 
13    C11      6.7297   -1.8391   -1.0871 C.ar    1  LIG  -0.2159  -0.1500 
14    C12      7.6862   -1.3864   -0.1670 C.ar    1  LIG   0.0043   0.0000 
15    C13      7.7263   -0.0424    0.2415 C.ar    1  LIG  -0.1469  -0.1500 
16    C14      8.6771    0.3976    1.1634 C.ar    1  LIG  -0.0924  -0.1500 
17    C15      9.5977   -0.5020    1.6893 C.ar    1  LIG  -0.0157   0.0825 
18    C16      9.5920   -1.8350    1.2793 C.ar    1  LIG   0.1543   0.0825 
19    C17      8.6280   -2.2964    0.3585 C.ar    1  LIG  -0.1688   0.0000 
20    C18      8.5390   -3.6212   -0.0848 C.ar    1  LIG   0.4485   0.1600 
21    N2       7.6247   -4.0796   -0.9695 N.ar    1  LIG  -0.6293  -0.6200 
22    O2      10.5291   -2.7168    1.7489 O.3     1  LIG  -0.4879  -0.5325 
23    O3      10.4766   -0.0297    2.6225 O.3     1  LIG  -0.5175  -0.5325 
24    H1       5.5330   -1.9116   -3.3918 H       1  LIG   0.3138   0.3700 
25    H2      11.3178   -2.2182    2.0201 H       1  LIG   0.4440   0.4500 
26    H3      10.7703   -0.7715    3.1770 H       1  LIG   0.4192   0.4500 
27    H4      -0.7784   -4.8167   -7.4696 H       1  LIG   0.1316   0.1500 
28    H5      -0.2356   -2.4146   -7.1774 H       1  LIG   0.1289   0.1500 
29    H6       1.4138   -1.7100   -5.4809 H       1  LIG   0.1282   0.1500 
30    H7       1.9921   -5.8343   -4.3545 H       1  LIG   0.1411   0.1500 
31    H8       0.3396   -6.5206   -6.0563 H       1  LIG   0.1318   0.1500 
32    H9       2.5864   -2.3005   -3.3800 H       1  LIG   0.0436   0.0000 
33    H10      2.7750   -3.9657   -2.8904 H       1  LIG   0.0750   0.0000 
34    H11      4.5229   -4.3026   -4.6948 H       1  LIG   0.0698   0.0000 
35    H12      4.3268   -2.6122   -5.1853 H       1  LIG   0.0494   0.0000 
36    H13      5.9865   -1.1496   -1.4750 H       1  LIG   0.1483   0.1500 
37    H14      7.0102    0.6763   -0.1526 H       1  LIG   0.1440   0.1500 
38    H15      8.6832    1.4382    1.4761 H       1  LIG   0.1488   0.1500 
39    H16      9.2255   -4.3837    0.2737 H       1  LIG   0.0463   0.1500 
@<TRIPOS>BOND
1     1     6     ar
2     1     2     ar
3     1     27    1
4     2     3     ar
5     2     28    1
6     3     4     ar
7     3     29    1
8     4     5     ar
9     4     7     1
10    5     6     ar
11    5     30    1
12    6     31    1
13    7     8     1
14    7     32    1
15    7     33    1
16    8     9     1
17    8     34    1
18    8     35    1
19    9     10    am
20    9     24    1
21    10    11    2
22    10    12    1
23    12    21    ar
24    12    13    ar
25    13    14    ar
26    13    36    1
27    14    19    ar
28    14    15    ar
29    15    16    ar
30    15    37    1
31    16    17    ar
32    16    38    1
33    17    18    ar
34    17    23    1
35    18    19    ar
36    18    22    1
37    19    20    ar
38    20    21    ar
39    20    39    1
40    22    25    1
41    23    26    1
@<TRIPOS>SUBSTRUCTURE
1   LIG    1    
 
########## Number      : 846
########## Name        : ZINC00018296
########## Description : AM1BCC_CHARGES =   0.0001 ORIGINAL_CHARGES =   0.0000

@<TRIPOS>MOLECULE
ZINC00018296
31    32    1     0     0    
SMALL
USER_CHARGES
****
****
@<TRIPOS>ATOM
1     C1       6.2729   -7.8240    0.2232 C.ar    1  LIG  -0.1208  -0.1500 
2     C2       6.6309   -6.8008    1.0979 C.ar    1  LIG  -0.1386  -0.1500 
3     C3       5.7274   -5.7755    1.3901 C.ar    1  LIG  -0.1140  -0.1500 
4     C4       4.4527   -5.7693    0.8069 C.ar    1  LIG  -0.1123   0.0862 
5     C5       4.1028   -6.8019   -0.0759 C.ar    1  LIG  -0.0943  -0.1500 
6     C6       5.0100   -7.8241   -0.3637 C.ar    1  LIG  -0.1388  -0.1500 
7     C7       3.4562   -4.6831    1.0950 C.2     1  LIG   0.4065   0.2776 
8     N1       2.4100   -4.5855    0.3249 N.2     1  LIG  -0.4033  -0.5120 
9     N2       1.4846   -3.6351    0.5946 N.am    1  LIG  -0.3331  -0.3680 
10    C8       0.3823   -3.5150   -0.2331 C.2     1  LIG   0.7720   0.6900 
11    O1       0.1566   -4.2056   -1.2247 O.2     1  LIG  -0.5820  -0.5700 
12    N3      -0.4683   -2.5089    0.1759 N.am    1  LIG  -0.6512  -0.8000 
13    C9       3.7189   -3.7846    2.2437 C.ar    1  LIG  -0.1717   0.0862 
14    C10      3.4414   -4.2296    3.5382 C.ar    1  LIG  -0.1067  -0.1500 
15    C11      3.6816   -3.3777    4.6148 C.ar    1  LIG  -0.1338  -0.1500 
16    C12      4.1912   -2.0961    4.3940 C.ar    1  LIG  -0.1226  -0.1500 
17    C13      4.4622   -1.6598    3.0953 C.ar    1  LIG  -0.1341  -0.1500 
18    C14      4.2258   -2.5035    2.0115 C.ar    1  LIG  -0.1228  -0.1500 
19    H1       1.5994   -3.0383    1.4040 H       1  LIG   0.3025   0.3700 
20    H2      -1.3169   -2.3126   -0.3427 H       1  LIG   0.3167   0.3700 
21    H3      -0.2781   -1.9418    0.9934 H       1  LIG   0.2925   0.3700 
22    H4       6.9776   -8.6192   -0.0019 H       1  LIG   0.1312   0.1500 
23    H5       7.6175   -6.7982    1.5533 H       1  LIG   0.1313   0.1500 
24    H6       6.0517   -4.9927    2.0693 H       1  LIG   0.1391   0.1500 
25    H7       3.1239   -6.8336   -0.5478 H       1  LIG   0.1571   0.1500 
26    H8       4.7290   -8.6207   -1.0469 H       1  LIG   0.1345   0.1500 
27    H9       3.0413   -5.2241    3.7143 H       1  LIG   0.1453   0.1500 
28    H10      3.4715   -3.7101    5.6276 H       1  LIG   0.1368   0.1500 
29    H11      4.3770   -1.4354    5.2364 H       1  LIG   0.1352   0.1500 
30    H12      4.8578   -0.6615    2.9304 H       1  LIG   0.1366   0.1500 
31    H13      4.4373   -2.1611    1.0024 H       1  LIG   0.1429   0.1500 
@<TRIPOS>BOND
1     1     6     ar
2     1     2     ar
3     1     22    1
4     2     3     ar
5     2     23    1
6     3     4     ar
7     3     24    1
8     4     5     ar
9     4     7     1
10    5     6     ar
11    5     25    1
12    6     26    1
13    7     8     2
14    7     13    1
15    8     9     1
16    9     10    am
17    9     19    1
18    10    11    2
19    10    12    am
20    12    20    1
21    12    21    1
22    13    18    ar
23    13    14    ar
24    14    15    ar
25    14    27    1
26    15    16    ar
27    15    28    1
28    16    17    ar
29    16    29    1
30    17    18    ar
31    17    30    1
32    18    31    1
@<TRIPOS>SUBSTRUCTURE
1   LIG    1    
 
########## Number      : 847
########## Name        : ZINC00018297
########## Description : AM1BCC_CHARGES =  -0.0002 ORIGINAL_CHARGES =   0.0000

@<TRIPOS>MOLECULE
ZINC00018297
21    21    1     0     0    
SMALL
USER_CHARGES
****
****
@<TRIPOS>ATOM
1     C1      -1.8321    1.6105    1.5140 C.ar    1  LIG  -0.1194  -0.1500 
2     C2      -0.7809    0.8730    0.9689 C.ar    1  LIG  -0.1359  -0.1500 
3     C3       0.1104    1.4757    0.0804 C.ar    1  LIG  -0.1182  -0.1500 
4     C4      -0.0558    2.8208   -0.2600 C.ar    1  LIG  -0.1255   0.0862 
5     C5      -1.1079    3.5631    0.2841 C.ar    1  LIG  -0.0911  -0.1500 
6     C6      -1.9951    2.9532    1.1720 C.ar    1  LIG  -0.1364  -0.1500 
7     C7       0.9020    3.4288   -1.2011 C.2     1  LIG   0.3697   0.3038 
8     N1       0.8124    4.6675   -1.5629 N.2     1  LIG  -0.4232  -0.5120 
9     N2       1.7721    5.0638   -2.4320 N.am    1  LIG  -0.3184  -0.3680 
10    C8       1.7751    6.3703   -2.8879 C.2     1  LIG   0.7620   0.6900 
11    O1       0.9636    7.2376   -2.5705 O.2     1  LIG  -0.5767  -0.5700 
12    N3       2.8127    6.6144   -3.7634 N.am    1  LIG  -0.6511  -0.8000 
13    H1       2.4709    4.3934   -2.7318 H       1  LIG   0.2828   0.3700 
14    H2       2.9317    7.5338   -4.1734 H       1  LIG   0.3164   0.3700 
15    H3       3.4794    5.8973   -4.0226 H       1  LIG   0.2927   0.3700 
16    H4      -2.5246    1.1390    2.2055 H       1  LIG   0.1323   0.1500 
17    H5      -0.6563   -0.1725    1.2370 H       1  LIG   0.1322   0.1500 
18    H6       0.9239    0.8872   -0.3353 H       1  LIG   0.1283   0.1500 
19    H7      -1.2514    4.6097    0.0301 H       1  LIG   0.1582   0.1500 
20    H8      -2.8146    3.5255    1.5979 H       1  LIG   0.1354   0.1500 
21    H9       1.7036    2.7696   -1.5832 H       1  LIG  -0.0143   0.0600 
@<TRIPOS>BOND
1     1     6     ar
2     1     2     ar
3     1     16    1
4     2     3     ar
5     2     17    1
6     3     4     ar
7     3     18    1
8     4     5     ar
9     4     7     1
10    5     6     ar
11    5     19    1
12    6     20    1
13    7     8     2
14    7     21    1
15    8     9     1
16    9     10    am
17    9     13    1
18    10    11    2
19    10    12    am
20    12    14    1
21    12    15    1
@<TRIPOS>SUBSTRUCTURE
1   LIG    1    
 
########## Number      : 848
########## Name        : ZINC00018299
########## Description : AM1BCC_CHARGES =  -0.0000 ORIGINAL_CHARGES =   0.0000

@<TRIPOS>MOLECULE
ZINC00018299
21    21    1     0     0    
SMALL
USER_CHARGES
****
****
@<TRIPOS>ATOM
1     C1       5.7123   -2.7540    3.7042 C.ar    1  LIG  -0.1111  -0.1500 
2     C2       5.4806   -1.4669    3.2165 C.ar    1  LIG  -0.1303  -0.1500 
3     C3       4.7253   -1.2910    2.0565 C.ar    1  LIG   0.0255   0.1770 
4     C4       4.1991   -2.3916    1.3791 C.ar    1  LIG  -0.1306  -0.1500 
5     C5       4.4293   -3.6799    1.8646 C.ar    1  LIG  -0.0840  -0.1500 
6     C6       5.1860   -3.8577    3.0269 C.ar    1  LIG  -0.1231   0.0862 
7     C7       5.4494   -5.2030    3.5688 C.2     1  LIG   0.3673   0.3038 
8     N1       4.9954   -6.2707    2.9969 N.2     1  LIG  -0.4215  -0.5120 
9     N2       5.3295   -7.4229    3.6249 N.am    1  LIG  -0.3118  -0.3680 
10    C8       4.8977   -8.6289    3.1014 C.2     1  LIG   0.7578   0.6900 
11    O1       4.2167   -8.7621    2.0867 O.2     1  LIG  -0.5735  -0.5700 
12    N3       5.3199   -9.7048    3.8544 N.am    1  LIG  -0.6467  -0.8000 
13    Cl1      4.4402    0.2976    1.4560 Cl      1  LIG  -0.0920  -0.1770 
14    H1       5.8906   -7.3785    4.4680 H       1  LIG   0.2813   0.3700 
15    H2       5.0727  -10.6495    3.5819 H       1  LIG   0.3155   0.3700 
16    H3       5.8810   -9.5912    4.6899 H       1  LIG   0.2919   0.3700 
17    H4       6.3019   -2.8796    4.6085 H       1  LIG   0.1344   0.1500 
18    H5       5.8925   -0.6128    3.7476 H       1  LIG   0.1479   0.1500 
19    H6       3.6101   -2.2600    0.4752 H       1  LIG   0.1512   0.1500 
20    H7       4.0135   -4.5279    1.3270 H       1  LIG   0.1642   0.1500 
21    H8       6.0568   -5.2527    4.4918 H       1  LIG  -0.0124   0.0600 
@<TRIPOS>BOND
1     1     6     ar
2     1     2     ar
3     1     17    1
4     2     3     ar
5     2     18    1
6     3     4     ar
7     3     13    1
8     4     5     ar
9     4     19    1
10    5     6     ar
11    5     20    1
12    6     7     1
13    7     8     2
14    7     21    1
15    8     9     1
16    9     10    am
17    9     14    1
18    10    11    2
19    10    12    am
20    12    15    1
21    12    16    1
@<TRIPOS>SUBSTRUCTURE
1   LIG    1    
 
########## Number      : 849
########## Name        : ZINC00018550
########## Description : AM1BCC_CHARGES =  -0.0000 ORIGINAL_CHARGES =   0.0000

@<TRIPOS>MOLECULE
ZINC00018550
31    33    1     0     0    
SMALL
USER_CHARGES
****
****
@<TRIPOS>ATOM
1     C1       5.5543   -6.4326    3.6509 C.ar    1  LIG  -0.1406  -0.1500 
2     C2       4.8002   -5.4140    3.0767 C.ar    1  LIG  -0.1179  -0.1500 
3     C3       4.1004   -5.6464    1.8920 C.ar    1  LIG  -0.1293  -0.1500 
4     C4       4.1464   -6.9026    1.2646 C.ar    1  LIG   0.0009   0.0000 
5     C5       3.4464   -7.1530    0.0688 C.ar    1  LIG  -0.1937  -0.1500 
6     C6       3.4838   -8.4066   -0.5579 C.ar    1  LIG   0.1820   0.1000 
7     C7       4.2489   -9.4181    0.0402 C.ar    1  LIG  -0.1706  -0.1500 
8     C8       4.9516   -9.1895    1.2262 C.ar    1  LIG  -0.0857  -0.1500 
9     C9       4.9108   -7.9360    1.8500 C.ar    1  LIG  -0.0694   0.0000 
10    C10      5.6101   -7.6867    3.0425 C.ar    1  LIG  -0.1053  -0.1500 
11    N1       2.8270   -8.6863   -1.7724 N.pl3   1  LIG  -0.6646  -0.6000 
12    C11      2.3958   -7.8635   -2.8316 C.ar    1  LIG   0.1436   0.1000 
13    C12      2.9393   -6.5981   -3.0965 C.ar    1  LIG  -0.1416  -0.1500 
14    C13      2.4514   -5.8074   -4.1417 C.ar    1  LIG  -0.1793  -0.1500 
15    C14      1.4068   -6.2780   -4.9304 C.ar    1  LIG   0.0887   0.0825 
16    C15      0.8475   -7.5268   -4.6897 C.ar    1  LIG  -0.1225  -0.1500 
17    C16      1.3403   -8.3122   -3.6452 C.ar    1  LIG  -0.1554  -0.1500 
18    O1       0.9059   -5.5317   -5.9585 O.3     1  LIG  -0.4985  -0.5325 
19    H1       2.6280   -9.6723   -1.9129 H       1  LIG   0.4388   0.4000 
20    H2       1.3958   -4.6927   -5.9999 H       1  LIG   0.4168   0.4500 
21    H3       6.0992   -6.2521    4.5731 H       1  LIG   0.1314   0.1500 
22    H4       4.7558   -4.4374    3.5503 H       1  LIG   0.1308   0.1500 
23    H5       3.5174   -4.8352    1.4608 H       1  LIG   0.1325   0.1500 
24    H6       2.8383   -6.3561   -0.3543 H       1  LIG   0.1444   0.1500 
25    H7       4.3115  -10.4016   -0.4211 H       1  LIG   0.1325   0.1500 
26    H8       5.5337  -10.0025    1.6550 H       1  LIG   0.1334   0.1500 
27    H9       6.2045   -8.4698    3.5084 H       1  LIG   0.1303   0.1500 
28    H10      3.7744   -6.2165   -2.5153 H       1  LIG   0.1482   0.1500 
29    H11      2.8985   -4.8352   -4.3281 H       1  LIG   0.1345   0.1500 
30    H12      0.0308   -7.8942   -5.3043 H       1  LIG   0.1508   0.1500 
31    H13      0.8859   -9.2840   -3.4639 H       1  LIG   0.1348   0.1500 
@<TRIPOS>BOND
1     1     10    ar
2     1     2     ar
3     1     21    1
4     2     3     ar
5     2     22    1
6     3     4     ar
7     3     23    1
8     4     9     ar
9     4     5     ar
10    5     6     ar
11    5     24    1
12    6     7     ar
13    6     11    1
14    7     8     ar
15    7     25    1
16    8     9     ar
17    8     26    1
18    9     10    ar
19    10    27    1
20    11    12    1
21    11    19    1
22    12    17    ar
23    12    13    ar
24    13    14    ar
25    13    28    1
26    14    15    ar
27    14    29    1
28    15    16    ar
29    15    18    1
30    16    17    ar
31    16    30    1
32    17    31    1
33    18    20    1
@<TRIPOS>SUBSTRUCTURE
1   LIG    1    
 
########## Number      : 850
########## Name        : ZINC00018684
########## Description : AM1BCC_CHARGES =  -0.0001 ORIGINAL_CHARGES =  -0.0000

@<TRIPOS>MOLECULE
ZINC00018684
28    29    1     0     0    
SMALL
USER_CHARGES
****
****
@<TRIPOS>ATOM
1     C1       5.0693   -5.2774   -0.8859 C.2     1  LIG   0.0364  -0.0410 
2     C2       5.4684   -6.5417   -0.9536 C.2     1  LIG  -0.1552   0.1639 
3     C3       4.4525   -7.6030   -0.8063 C.2     1  LIG   0.7495   0.4856 
4     N1       3.1960   -7.3035   -0.6164 N.2     1  LIG  -0.7134  -0.6610 
5     C4       2.7773   -5.9842   -0.5455 C.2     1  LIG   0.8394   0.8410 
6     O1       1.5852   -5.7342   -0.3672 O.2     1  LIG  -0.6156  -0.5700 
7     N2       3.7415   -4.9601   -0.6804 N.am    1  LIG  -0.3835  -0.4691 
8     C5       3.3692   -3.5341   -0.6317 C.3     1  LIG   0.3121   0.5801 
9     C6       2.4917   -3.0930   -1.8099 C.3     1  LIG  -0.0996   0.0000 
10    C7       1.1645   -2.7430   -1.1740 C.3     1  LIG  -0.0978   0.0000 
11    C8       1.5718   -2.4009    0.2504 C.3     1  LIG   0.1048   0.2800 
12    O2       2.6571   -3.2637    0.5757 O.3     1  LIG  -0.4295  -0.5600 
13    C9       0.4352   -2.6067    1.2430 C.3     1  LIG   0.1175   0.2800 
14    O3       0.8149   -2.0648    2.5041 O.3     1  LIG  -0.6007  -0.6800 
15    N3       4.8420   -8.9175   -0.8720 N.pl3   1  LIG  -0.9152  -0.8500 
16    F1       6.7451   -6.9110   -1.1515 F       1  LIG  -0.1605  -0.1495 
17    H1       0.0850   -2.2430    3.1213 H       1  LIG   0.4045   0.4000 
18    H2       4.1600   -9.6609   -0.7728 H       1  LIG   0.4511   0.4000 
19    H3       5.8096   -9.1839   -1.0179 H       1  LIG   0.4435   0.4000 
20    H4       5.7772   -4.4636   -0.9907 H       1  LIG   0.1701   0.1500 
21    H5       4.2921   -2.9336   -0.6726 H       1  LIG   0.0668   0.0000 
22    H6       2.9238   -2.1927   -2.2642 H       1  LIG   0.0532   0.0000 
23    H7       2.4001   -3.8408   -2.6037 H       1  LIG   0.0821   0.0000 
24    H8       0.6520   -1.9179   -1.6775 H       1  LIG   0.0552   0.0000 
25    H9       0.4984   -3.6118   -1.1994 H       1  LIG   0.0804   0.0000 
26    H10      1.8933   -1.3466    0.2839 H       1  LIG   0.0670   0.0000 
27    H11     -0.4727   -2.0926    0.9123 H       1  LIG   0.0705   0.0000 
28    H12      0.2219   -3.6711    1.3851 H       1  LIG   0.0668   0.0000 
@<TRIPOS>BOND
1     1     7     1
2     1     2     2
3     1     20    1
4     2     3     1
5     2     16    1
6     3     4     2
7     3     15    1
8     4     5     1
9     5     6     2
10    5     7     am
11    7     8     1
12    8     12    1
13    8     9     1
14    8     21    1
15    9     10    1
16    9     22    1
17    9     23    1
18    10    11    1
19    10    24    1
20    10    25    1
21    11    12    1
22    11    13    1
23    11    26    1
24    13    14    1
25    13    27    1
26    13    28    1
27    14    17    1
28    15    18    1
29    15    19    1
@<TRIPOS>SUBSTRUCTURE
1   LIG    1    
 
########## Number      : 851
########## Name        : ZINC00018718
########## Description : AM1BCC_CHARGES =   0.0002 ORIGINAL_CHARGES =   0.0000

@<TRIPOS>MOLECULE
ZINC00018718
49    52    1     0     0    
SMALL
USER_CHARGES
****
****
@<TRIPOS>ATOM
1     C1       5.1587   -5.0068   -0.0639 C.3     1  LIG  -0.0844   0.0000 
2     C2       4.2840   -6.2341    0.2645 C.3     1  LIG  -0.1459   0.0610 
3     C3       5.1402   -7.4015    0.8096 C.3     1  LIG  -0.0597   0.0000 
4     C4       5.1920   -7.4788    2.3604 C.3     1  LIG  -0.0709   0.0000 
5     C5       5.0424   -6.0713    2.9836 C.3     1  LIG  -0.0555   0.0000 
6     C6       3.6199   -5.5421    2.6765 C.3     1  LIG  -0.0459   0.0000 
7     C7       3.1543   -5.9924    1.2795 C.3     1  LIG  -0.0576   0.0000 
8     C8       2.1285   -5.1880    0.4808 C.3     1  LIG  -0.0730   0.0000 
9     C9       2.0967   -5.9411   -0.8710 C.3     1  LIG  -0.1887   0.0610 
10    C10      3.4867   -6.5666   -0.9659 C.2     1  LIG   0.5736   0.4480 
11    O1       3.8879   -7.2141   -1.9219 O.2     1  LIG  -0.5210  -0.5700 
12    C11      3.5929   -4.0278    2.9077 C.3     1  LIG  -0.0401   0.1382 
13    C12      4.2009   -3.6975    4.2487 C.2     1  LIG  -0.1628  -0.2882 
14    C13      4.9331   -4.5567    4.9896 C.2     1  LIG  -0.1062  -0.2764 
15    C14      5.2879   -5.9856    4.5333 C.3     1  LIG  -0.0011   0.1382 
16    C15      6.7930   -6.2713    4.8560 C.3     1  LIG  -0.0726   0.0000 
17    C16      7.6291   -4.9939    4.9389 C.3     1  LIG  -0.0740   0.0000 
18    C17      7.1398   -4.0638    6.0641 C.3     1  LIG   0.1477   0.2800 
19    C18      5.6138   -4.1023    6.2569 C.3     1  LIG  -0.0724   0.1382 
20    O2       7.5407   -2.7411    5.7415 O.3     1  LIG  -0.5986  -0.6800 
21    C19      4.4452   -7.0240    5.3088 C.3     1  LIG  -0.0824   0.0000 
22    H1       7.3012   -2.1693    6.4906 H       1  LIG   0.3971   0.4000 
23    H2       4.5670   -4.1933   -0.4988 H       1  LIG   0.0362   0.0000 
24    H3       5.7071   -4.5855    0.7754 H       1  LIG   0.0502   0.0000 
25    H4       5.9025   -5.2741   -0.8252 H       1  LIG   0.0463   0.0000 
26    H5       4.7686   -8.3638    0.4344 H       1  LIG   0.0542   0.0000 
27    H6       6.1657   -7.3159    0.4278 H       1  LIG   0.0493   0.0000 
28    H7       4.3819   -8.1327    2.7064 H       1  LIG   0.0408   0.0000 
29    H8       6.1277   -7.9652    2.6499 H       1  LIG   0.0446   0.0000 
30    H9       5.8208   -5.4797    2.4804 H       1  LIG   0.0575   0.0000 
31    H10      2.8830   -5.9230    3.4061 H       1  LIG   0.0516   0.0000 
32    H11      2.6081   -6.9327    1.5077 H       1  LIG   0.0479   0.0000 
33    H12      1.1421   -5.1784    0.9549 H       1  LIG   0.0504   0.0000 
34    H13      2.4414   -4.1494    0.3320 H       1  LIG   0.0497   0.0000 
35    H14      1.3513   -6.7414   -0.8544 H       1  LIG   0.0741   0.0000 
36    H15      1.9175   -5.2578   -1.7039 H       1  LIG   0.0747   0.0000 
37    H16      4.1388   -3.4840    2.1307 H       1  LIG   0.0549   0.0000 
38    H17      2.5571   -3.6692    2.8933 H       1  LIG   0.0470   0.0000 
39    H18      4.0537   -2.6783    4.5979 H       1  LIG   0.1223   0.1500 
40    H19      6.8837   -6.7908    5.8198 H       1  LIG   0.0406   0.0000 
41    H20      7.2451   -6.9409    4.1189 H       1  LIG   0.0487   0.0000 
42    H21      8.6817   -5.2459    5.1176 H       1  LIG   0.0492   0.0000 
43    H22      7.6142   -4.4722    3.9729 H       1  LIG   0.0658   0.0000 
44    H23      7.6191   -4.3888    7.0014 H       1  LIG   0.0287   0.0000 
45    H24      5.2393   -3.1248    6.5841 H       1  LIG   0.0474   0.0000 
46    H25      5.3632   -4.8100    7.0563 H       1  LIG   0.0524   0.0000 
47    H26      4.6279   -6.9561    6.3880 H       1  LIG   0.0338   0.0000 
48    H27      3.3689   -6.8884    5.1728 H       1  LIG   0.0393   0.0000 
49    H28      4.6976   -8.0473    5.0117 H       1  LIG   0.0370   0.0000 
@<TRIPOS>BOND
1     1     2     1
2     1     23    1
3     1     24    1
4     1     25    1
5     2     7     1
6     2     10    1
7     2     3     1
8     3     4     1
9     3     26    1
10    3     27    1
11    4     5     1
12    4     28    1
13    4     29    1
14    5     15    1
15    5     6     1
16    5     30    1
17    6     7     1
18    6     12    1
19    6     31    1
20    7     8     1
21    7     32    1
22    8     9     1
23    8     33    1
24    8     34    1
25    9     10    1
26    9     35    1
27    9     36    1
28    10    11    2
29    12    13    1
30    12    37    1
31    12    38    1
32    13    14    2
33    13    39    1
34    14    19    1
35    14    15    1
36    15    16    1
37    15    21    1
38    16    17    1
39    16    40    1
40    16    41    1
41    17    18    1
42    17    42    1
43    17    43    1
44    18    19    1
45    18    20    1
46    18    44    1
47    19    45    1
48    19    46    1
49    20    22    1
50    21    47    1
51    21    48    1
52    21    49    1
@<TRIPOS>SUBSTRUCTURE
1   LIG    1    
 
########## Number      : 852
########## Name        : ZINC00018721
########## Description : AM1BCC_CHARGES =   0.0001 ORIGINAL_CHARGES =   0.0000

@<TRIPOS>MOLECULE
ZINC00018721
21    22    1     0     0    
SMALL
USER_CHARGES
****
****
@<TRIPOS>ATOM
1     C1       5.0962   -7.4362   -1.4522 C.3     1  LIG  -0.0649   0.1435 
2     C2       3.7946   -7.0052   -0.8452 C.ar    1  LIG  -0.0162  -0.1435 
3     C3       3.3481   -7.5727    0.3492 C.ar    1  LIG  -0.1671  -0.1500 
4     C4       2.1534   -7.1413    0.9189 C.ar    1  LIG  -0.0413  -0.1500 
5     C5       1.3998   -6.1248    0.2971 C.ar    1  LIG  -0.3214   0.0895 
6     C6       1.8396   -5.5356   -0.8916 C.ar    1  LIG   0.5011   0.3100 
7     C7       3.0379   -5.9843   -1.4422 C.ar    1  LIG  -0.2148  -0.1500 
8     N1       1.1372   -4.5675   -1.4884 N.ar    1  LIG  -0.7913  -0.6200 
9     C8      -0.0142   -4.1681   -0.9185 C.ar    1  LIG   0.9090   0.7200 
10    N2      -0.5048   -4.6812    0.2166 N.ar    1  LIG  -0.6924  -0.6480 
11    N3       0.1978   -5.6508    0.8182 N.ar    1  LIG   0.7726   0.9985 
12    O1      -0.3026   -6.1051    1.8884 O.3     1  LIG  -0.4591  -0.7500 
13    N4      -0.7332   -3.1680   -1.5428 N.pl3   1  LIG  -0.9517  -0.9000 
14    H1      -0.3850   -2.7642   -2.4001 H       1  LIG   0.4561   0.4000 
15    H2      -1.6009   -2.8493   -1.1364 H       1  LIG   0.4556   0.4000 
16    H3       5.3131   -8.4824   -1.2118 H       1  LIG   0.0507   0.0000 
17    H4       5.0637   -7.3547   -2.5438 H       1  LIG   0.0516   0.0000 
18    H5       5.9107   -6.8108   -1.0741 H       1  LIG   0.0567   0.0000 
19    H6       3.9247   -8.3517    0.8415 H       1  LIG   0.1443   0.1500 
20    H7       1.8137   -7.5951    1.8466 H       1  LIG   0.1642   0.1500 
21    H8       3.3961   -5.5286   -2.3646 H       1  LIG   0.1584   0.1500 
@<TRIPOS>BOND
1     1     2     1
2     1     16    1
3     1     17    1
4     1     18    1
5     2     7     ar
6     2     3     ar
7     3     4     ar
8     3     19    1
9     4     5     ar
10    4     20    1
11    5     11    ar
12    5     6     ar
13    6     7     ar
14    6     8     ar
15    7     21    1
16    8     9     ar
17    9     10    ar
18    9     13    1
19    10    11    ar
20    11    12    1
21    13    14    1
22    13    15    1
@<TRIPOS>SUBSTRUCTURE
1   LIG    1    
 
########## Number      : 853
########## Name        : ZINC00018735
########## Description : AM1BCC_CHARGES =  -0.9998 ORIGINAL_CHARGES =  -1.0000

@<TRIPOS>MOLECULE
ZINC00018735
20    21    1     0     0    
SMALL
USER_CHARGES
****
****
@<TRIPOS>ATOM
1     C1       3.8016   -7.7903    0.6301 C.ar    1  LIG  -0.2097  -0.1500 
2     C2       2.5298   -7.5626    0.1053 C.ar    1  LIG  -0.0347  -0.1500 
3     C3       2.0551   -6.2528   -0.0077 C.ar    1  LIG  -0.2214   0.0862 
4     C4       2.8415   -5.1618    0.4002 C.ar    1  LIG   0.2039   0.1000 
5     C5       4.1152   -5.4013    0.9249 C.ar    1  LIG  -0.2102  -0.1500 
6     C6       4.5875   -6.7110    1.0369 C.ar    1  LIG   0.0731   0.1770 
7     Cl1      6.1579   -6.9979    1.6845 Cl      1  LIG  -0.1329  -0.1770 
8     N1       2.3428   -3.8621    0.2763 N.pl3   1  LIG  -0.5822  -0.6000 
9     C7       1.0901   -3.6012   -0.2381 C.2     1  LIG   0.0886  -0.1500 
10    C8       0.2605   -4.5711   -0.6560 C.2     1  LIG  -0.3305  -0.1356 
11    C9       0.7036   -5.9890   -0.5638 C.2     1  LIG   0.5820   0.4694 
12    O1      -0.0269   -6.8994   -0.9357 O.2     1  LIG  -0.6289  -0.5700 
13    C10      0.6283   -2.1184   -0.3339 C.2     1  LIG   0.9179   1.0500 
14    O2       1.4784   -1.2760    0.0842 O.co2   1  LIG  -0.8246  -0.9000 
15    H1       2.9010   -3.0682    0.5671 H       1  LIG   0.4738   0.4000 
16    H2       4.1680   -8.8098    0.7167 H       1  LIG   0.1347   0.1500 
17    H3       1.9243   -8.4083   -0.2091 H       1  LIG   0.1527   0.1500 
18    H4       4.7348   -4.5667    1.2446 H       1  LIG   0.1442   0.1500 
19    H5      -0.7265   -4.3873   -1.0628 H       1  LIG   0.1780   0.1500 
20    O3      -0.5243   -1.9129   -0.8095 O.co2   1  LIG  -0.7736  -0.9000 
@<TRIPOS>BOND
1     1     6     ar
2     1     2     ar
3     1     16    1
4     2     3     ar
5     2     17    1
6     3     4     ar
7     3     11    1
8     4     5     ar
9     4     8     1
10    5     6     ar
11    5     18    1
12    6     7     1
13    8     15    1
14    8     9     1
15    9     13    1
16    9     10    2
17    10    19    1
18    10    11    1
19    11    12    2
20    13    14    1
21    13    20    2
@<TRIPOS>SUBSTRUCTURE
1   LIG    1    
 
########## Number      : 854
########## Name        : ZINC00018737
########## Description : AM1BCC_CHARGES =  -0.0002 ORIGINAL_CHARGES =   0.0000

@<TRIPOS>MOLECULE
ZINC00018737
29    29    1     0     0    
SMALL
USER_CHARGES
****
****
@<TRIPOS>ATOM
1     C1       1.9712    0.2754    0.6318 C.3     1  LIG  -0.1285   0.0000 
2     C2       1.5939   -0.3347   -0.7044 C.3     1  LIG   0.1421   0.2800 
3     O1       1.4851   -1.7631   -0.5794 O.3     1  LIG  -0.4516  -0.4300 
4     C3       2.6231   -2.4842   -0.7427 C.2     1  LIG   0.5403   0.6338 
5     O2       3.7366   -2.0440   -0.9822 O.2     1  LIG  -0.4932  -0.5700 
6     C4       2.3448   -3.9322   -0.5858 C.ar    1  LIG   0.3660   0.3962 
7     C5       1.0776   -4.4304   -0.3070 C.ar    1  LIG  -0.1632  -0.1500 
8     C6       0.9310   -5.8085   -0.1798 C.ar    1  LIG  -0.1238  -0.1500 
9     C7       2.0335   -6.6442   -0.3310 C.ar    1  LIG  -0.1634  -0.1500 
10    C8       3.2627   -6.0581   -0.6088 C.ar    1  LIG   0.3666   0.3962 
11    N1       3.4368   -4.7204   -0.7384 N.ar    1  LIG  -0.5611  -0.6200 
12    C9       4.5059   -6.8455   -0.7904 C.2     1  LIG   0.5398   0.6338 
13    O3       5.5882   -6.3354   -1.0346 O.2     1  LIG  -0.4936  -0.5700 
14    O4       4.2534   -8.1711   -0.6466 O.3     1  LIG  -0.4524  -0.4300 
15    C10      5.3878   -9.0370   -0.8018 C.3     1  LIG   0.1411   0.2800 
16    C11      4.9221  -10.4665   -0.6097 C.3     1  LIG  -0.1015   0.0000 
17    H1       2.0058    1.3664    0.5645 H       1  LIG   0.0487   0.0000 
18    H2       1.2471   -0.0087    1.4024 H       1  LIG   0.0440   0.0000 
19    H3       2.9492   -0.0858    0.9653 H       1  LIG   0.0612   0.0000 
20    H4       0.6133    0.0361   -1.0195 H       1  LIG   0.0650   0.0000 
21    H5       2.3128   -0.0629   -1.4856 H       1  LIG   0.0640   0.0000 
22    H6       0.2111   -3.7894   -0.1867 H       1  LIG   0.1721   0.1500 
23    H7      -0.0454   -6.2326    0.0380 H       1  LIG   0.1518   0.1500 
24    H8       1.9070   -7.7165   -0.2296 H       1  LIG   0.1721   0.1500 
25    H9       5.8087   -8.9127   -1.8055 H       1  LIG   0.0561   0.0000 
26    H10      6.1450   -8.7865   -0.0508 H       1  LIG   0.0552   0.0000 
27    H11      5.7552  -11.1664   -0.7190 H       1  LIG   0.0505   0.0000 
28    H12      4.4780  -10.5971    0.3827 H       1  LIG   0.0482   0.0000 
29    H13      4.1477  -10.7211   -1.3408 H       1  LIG   0.0473   0.0000 
@<TRIPOS>BOND
1     1     2     1
2     1     17    1
3     1     18    1
4     1     19    1
5     2     3     1
6     2     20    1
7     2     21    1
8     3     4     1
9     4     5     2
10    4     6     1
11    6     11    ar
12    6     7     ar
13    7     8     ar
14    7     22    1
15    8     9     ar
16    8     23    1
17    9     10    ar
18    9     24    1
19    10    11    ar
20    10    12    1
21    12    13    2
22    12    14    1
23    14    15    1
24    15    16    1
25    15    25    1
26    15    26    1
27    16    27    1
28    16    28    1
29    16    29    1
@<TRIPOS>SUBSTRUCTURE
1   LIG    1    
 
########## Number      : 855
########## Name        : ZINC00018804
########## Description : AM1BCC_CHARGES =   0.0002 ORIGINAL_CHARGES =   0.0000

@<TRIPOS>MOLECULE
ZINC00018804
25    26    1     0     0    
SMALL
USER_CHARGES
****
****
@<TRIPOS>ATOM
1     C1       4.1308   -9.9250   -0.6785 C.ar    1  LIG  -0.1153  -0.1500 
2     C2       2.9806   -9.5815    0.0323 C.ar    1  LIG  -0.1361  -0.1500 
3     C3       2.6351   -8.2400    0.1988 C.ar    1  LIG  -0.1074  -0.1500 
4     C4       3.4467   -7.2436   -0.3500 C.ar    1  LIG  -0.1515   0.0862 
5     C5       4.6001   -7.5837   -1.0625 C.ar    1  LIG  -0.0884  -0.1500 
6     C6       4.9390   -8.9276   -1.2248 C.ar    1  LIG  -0.1391  -0.1500 
7     C7       3.0545   -5.8359   -0.1568 C.2     1  LIG   0.5010   0.3038 
8     N1       3.7543   -4.8572   -0.6368 N.2     1  LIG  -0.5696  -0.6210 
9     C8       3.2569   -3.6085   -0.3642 C.2     1  LIG  -0.0511   0.1854 
10    C9       2.6996   -2.8330   -1.3038 C.2     1  LIG   0.0608  -0.0410 
11    N2       2.2263   -1.5760   -1.0458 N.am    1  LIG  -0.4643  -0.5390 
12    C10      2.2866   -0.9826    0.2008 C.2     1  LIG   0.8009   0.6900 
13    O1       1.8554    0.1480    0.4231 O.2     1  LIG  -0.6324  -0.5700 
14    N3       2.8782   -1.7661    1.1850 N.am    1  LIG  -0.5793  -0.4900 
15    C11      3.3916   -3.0423    1.0164 C.2     1  LIG   0.6997   0.6156 
16    O2       3.9207   -3.6755    1.9265 O.2     1  LIG  -0.6171  -0.5700 
17    H1       1.8112   -1.0515   -1.8097 H       1  LIG   0.3583   0.3700 
18    H2       2.9483   -1.3610    2.1124 H       1  LIG   0.3563   0.3700 
19    H3       4.3977  -10.9702   -0.8065 H       1  LIG   0.1330   0.1500 
20    H4       2.3533  -10.3602    0.4570 H       1  LIG   0.1344   0.1500 
21    H5       1.7362   -7.9890    0.7556 H       1  LIG   0.1350   0.1500 
22    H6       5.2423   -6.8214   -1.4947 H       1  LIG   0.1476   0.1500 
23    H7       5.8345   -9.1978   -1.7775 H       1  LIG   0.1346   0.1500 
24    H8       2.1263   -5.6580    0.4201 H       1  LIG   0.0104   0.0600 
25    H9       2.5905   -3.1664   -2.3299 H       1  LIG   0.1798   0.1500 
@<TRIPOS>BOND
1     1     6     ar
2     1     2     ar
3     1     19    1
4     2     3     ar
5     2     20    1
6     3     4     ar
7     3     21    1
8     4     5     ar
9     4     7     1
10    5     6     ar
11    5     22    1
12    6     23    1
13    7     8     2
14    7     24    1
15    8     9     1
16    9     15    1
17    9     10    2
18    10    11    1
19    10    25    1
20    11    12    am
21    11    17    1
22    12    13    2
23    12    14    am
24    14    15    am
25    14    18    1
26    15    16    2
@<TRIPOS>SUBSTRUCTURE
1   LIG    1    
 
########## Number      : 856
########## Name        : ZINC00019372
########## Description : AM1BCC_CHARGES =  -0.0000 ORIGINAL_CHARGES =   0.0000

@<TRIPOS>MOLECULE
ZINC00019372
25    27    1     0     0    
SMALL
USER_CHARGES
****
****
@<TRIPOS>ATOM
1     C1       5.1813   -7.6462    0.8091 C.ar    1  LIG  -0.0552  -0.1500 
2     C2       4.2701   -7.5699    1.8571 C.ar    1  LIG  -0.1538  -0.1500 
3     C3       3.2628   -6.6120    1.8246 C.ar    1  LIG  -0.0129  -0.1500 
4     C4       3.1764   -5.7351    0.7365 C.ar    1  LIG  -0.3844  -0.0090 
5     C5       4.0729   -5.7869   -0.3375 C.ar    1  LIG   0.2064   0.1000 
6     C6       5.0829   -6.7651   -0.2730 C.ar    1  LIG  -0.1450  -0.1500 
7     N1       3.9959   -4.9162   -1.4481 N.pl3   1  LIG  -0.2985  -0.1710 
8     C7       3.0237   -3.9735   -1.6873 C.2     1  LIG   0.7315   0.7363 
9     N2       2.9023   -3.1671   -2.6990 N.2     1  LIG  -0.6103  -0.6960 
10    C8       1.6595   -2.3759   -2.4791 C.3     1  LIG   0.0961   0.2460 
11    C9       1.1167   -2.7159   -1.0899 C.3     1  LIG   0.1934   0.3557 
12    N3       2.0016   -3.8203   -0.7271 N.pl3   1  LIG  -0.7918  -0.7300 
13    S1       1.8861   -4.5419    0.7793 S.o2    1  LIG   1.5399   1.4470 
14    O1       2.2511   -3.5742    1.7947 O.2     1  LIG  -0.6402  -0.6500 
15    O2       0.6366   -5.2737    0.8475 O.2     1  LIG  -0.6480  -0.6500 
16    O3       4.9362   -5.0042   -2.4739 O.3     1  LIG  -0.3768  -0.3790 
17    H1       5.4486   -4.1855   -2.3534 H       1  LIG   0.4482   0.4000 
18    H2       5.9710   -8.3922    0.8291 H       1  LIG   0.1444   0.1500 
19    H3       4.3463   -8.2540    2.6971 H       1  LIG   0.1487   0.1500 
20    H4       2.5560   -6.5532    2.6482 H       1  LIG   0.1557   0.1500 
21    H5       5.8129   -6.8602   -1.0742 H       1  LIG   0.1620   0.1500 
22    H6       1.8793   -1.3067   -2.5631 H       1  LIG   0.0760   0.0000 
23    H7       0.9309   -2.6340   -3.2555 H       1  LIG   0.0771   0.0000 
24    H8       1.2396   -1.8724   -0.4046 H       1  LIG   0.0660   0.0000 
25    H9       0.0693   -3.0245   -1.1308 H       1  LIG   0.0715   0.0000 
@<TRIPOS>BOND
1     1     6     ar
2     1     2     ar
3     1     18    1
4     2     3     ar
5     2     19    1
6     3     4     ar
7     3     20    1
8     4     13    1
9     4     5     ar
10    5     6     ar
11    5     7     1
12    6     21    1
13    7     8     1
14    7     16    1
15    8     12    1
16    8     9     2
17    9     10    1
18    10    11    1
19    10    22    1
20    10    23    1
21    11    12    1
22    11    24    1
23    11    25    1
24    12    13    1
25    13    14    2
26    13    15    2
27    16    17    1
@<TRIPOS>SUBSTRUCTURE
1   LIG    1    
 
########## Number      : 857
########## Name        : ZINC00019621
########## Description : AM1BCC_CHARGES =   0.0002 ORIGINAL_CHARGES =   0.0000

@<TRIPOS>MOLECULE
ZINC00019621
37    40    1     0     0    
SMALL
USER_CHARGES
****
****
@<TRIPOS>ATOM
1     C1       7.6592   -1.3490   -0.1289 C.3     1  LIG  -0.1287   0.0000 
2     C2       7.4766    0.0602   -0.6589 C.3     1  LIG   0.1506   0.2800 
3     O1       6.1695    0.2017   -1.2431 O.3     1  LIG  -0.4504  -0.4300 
4     C3       6.0227   -0.1582   -2.5546 C.2     1  LIG   0.7494   0.7800 
5     O2       6.9355   -0.5869   -3.2478 O.2     1  LIG  -0.5712  -0.5700 
6     N1       4.7120    0.0664   -2.9194 N.am    1  LIG  -0.4532  -0.5470 
7     C4       4.0706   -0.2071   -4.1516 C.ar    1  LIG   0.1308   0.1170 
8     C5       4.6968   -1.0114   -5.1230 C.ar    1  LIG  -0.1774  -0.1500 
9     C6       4.0529   -1.3840   -6.3007 C.ar    1  LIG   0.0272   0.0000 
10    C7       4.6847   -2.1915   -7.2556 C.ar    1  LIG  -0.2306  -0.1500 
11    C8       3.9840   -2.5463   -8.3975 C.ar    1  LIG   0.3890   0.1600 
12    N2       2.7172   -2.1641   -8.6549 N.ar    1  LIG  -0.6633  -0.6200 
13    C9       2.1230   -1.3855   -7.7217 C.ar    1  LIG   0.4242   0.1600 
14    C10      2.7360   -0.9621   -6.5299 C.ar    1  LIG  -0.1547   0.0000 
15    C11      2.0908   -0.1316   -5.5569 C.ar    1  LIG  -0.0153   0.0400 
16    C12      2.7406    0.2918   -4.3846 C.ar    1  LIG  -0.0861   0.0000 
17    C13      1.8917    1.2338   -3.6273 C.ar    1  LIG  -0.0392   0.0000 
18    C14      2.1405    2.0230   -2.4668 C.ar    1  LIG  -0.1071  -0.1500 
19    C15      1.1505    2.8363   -1.9024 C.ar    1  LIG  -0.1261  -0.1500 
20    C16     -0.1058    2.9034   -2.4740 C.ar    1  LIG  -0.1190  -0.1500 
21    C17     -0.3839    2.1763   -3.6275 C.ar    1  LIG  -0.0935  -0.1500 
22    C18      0.6224    1.3644   -4.1945 C.ar    1  LIG  -0.0717   0.0400 
23    S1       0.4744    0.4550   -5.6265 S.3     1  LIG   0.0531  -0.0800 
24    H1       4.1397    0.4582   -2.1853 H       1  LIG   0.3457   0.3700 
25    H2       8.6286   -1.4548    0.3662 H       1  LIG   0.0498   0.0000 
26    H3       6.8680   -1.5962    0.5865 H       1  LIG   0.0464   0.0000 
27    H4       7.5975   -2.0837   -0.9379 H       1  LIG   0.0575   0.0000 
28    H5       7.5389    0.7782    0.1652 H       1  LIG   0.0671   0.0000 
29    H6       8.2590    0.3225   -1.3797 H       1  LIG   0.0700   0.0000 
30    H7       5.6977   -1.3993   -4.9588 H       1  LIG   0.1779   0.1500 
31    H8       5.7028   -2.5433   -7.1174 H       1  LIG   0.1505   0.1500 
32    H9       4.4420   -3.1705   -9.1580 H       1  LIG   0.0243   0.1500 
33    H10      1.1060   -1.1044   -7.9778 H       1  LIG   0.0229   0.1500 
34    H11      3.1156    2.0446   -1.9922 H       1  LIG   0.1355   0.1500 
35    H12      1.3760    3.4218   -1.0151 H       1  LIG   0.1363   0.1500 
36    H13     -0.8722    3.5354   -2.0346 H       1  LIG   0.1381   0.1500 
37    H14     -1.3652    2.2478   -4.0894 H       1  LIG   0.1414   0.1500 
@<TRIPOS>BOND
1     1     2     1
2     1     25    1
3     1     26    1
4     1     27    1
5     2     3     1
6     2     28    1
7     2     29    1
8     3     4     1
9     4     5     2
10    4     6     am
11    6     7     1
12    6     24    1
13    7     16    ar
14    7     8     ar
15    8     9     ar
16    8     30    1
17    9     14    ar
18    9     10    ar
19    10    11    ar
20    10    31    1
21    11    12    ar
22    11    32    1
23    12    13    ar
24    13    14    ar
25    13    33    1
26    14    15    ar
27    15    23    1
28    15    16    ar
29    16    17    1
30    17    22    ar
31    17    18    ar
32    18    19    ar
33    18    34    1
34    19    20    ar
35    19    35    1
36    20    21    ar
37    20    36    1
38    21    22    ar
39    21    37    1
40    22    23    1
@<TRIPOS>SUBSTRUCTURE
1   LIG    1    
 
########## Number      : 858
########## Name        : ZINC00019623
########## Description : AM1BCC_CHARGES =  -0.0003 ORIGINAL_CHARGES =   0.0000

@<TRIPOS>MOLECULE
ZINC00019623
32    35    1     0     0    
SMALL
USER_CHARGES
****
****
@<TRIPOS>ATOM
1     C1      -2.7470    1.6814   -7.9341 C.3     1  LIG   0.1229   0.2800 
2     O1      -2.3361    0.3148   -7.8387 O.3     1  LIG  -0.4295  -0.4300 
3     C2      -1.0161    0.1328   -7.5905 C.2     1  LIG   0.6422   0.6338 
4     O2      -0.1488    0.9743   -7.4360 O.2     1  LIG  -0.5244  -0.5700 
5     C3      -0.7699   -1.3099   -7.5318 C.ar    1  LIG  -0.0509   0.0862 
6     C4      -1.2113   -1.9712   -6.3773 C.ar    1  LIG  -0.0851  -0.1500 
7     C5      -0.9777   -3.3320   -6.2162 C.ar    1  LIG  -0.0098   0.0000 
8     C6      -1.4104   -4.0146   -5.0734 C.ar    1  LIG  -0.2219  -0.1500 
9     C7      -1.1427   -5.3706   -4.9685 C.ar    1  LIG   0.3849   0.1600 
10    N1      -0.4849   -6.0871   -5.9031 N.ar    1  LIG  -0.6516  -0.6200 
11    C8      -0.0729   -5.4124   -7.0010 C.ar    1  LIG   0.4169   0.1600 
12    C9      -0.2867   -4.0416   -7.2177 C.ar    1  LIG  -0.1161   0.0000 
13    C10      0.1615   -3.3497   -8.3938 C.ar    1  LIG  -0.0429   0.0400 
14    C11     -0.0742   -1.9785   -8.5793 C.ar    1  LIG  -0.0226   0.0000 
15    C12      0.4465   -1.5087   -9.8649 C.ar    1  LIG  -0.0511   0.0000 
16    C13      0.4067   -0.2296  -10.4865 C.ar    1  LIG  -0.0832  -0.1500 
17    C14      0.9867   -0.0102  -11.7403 C.ar    1  LIG  -0.1293  -0.1500 
18    C15      1.6139   -1.0465  -12.4087 C.ar    1  LIG  -0.1120  -0.1500 
19    C16      1.6669   -2.3167  -11.8388 C.ar    1  LIG  -0.1005  -0.1500 
20    C17      1.0779   -2.5309  -10.5746 C.ar    1  LIG  -0.0621   0.0400 
21    S1       1.0276   -4.0115   -9.7266 S.3     1  LIG   0.0518  -0.0800 
22    H1      -3.8210    1.7002   -8.1375 H       1  LIG   0.0672   0.0000 
23    H2      -2.5597    2.2008   -6.9893 H       1  LIG   0.0465   0.0000 
24    H3      -2.2254    2.1778   -8.7581 H       1  LIG   0.0449   0.0000 
25    H4      -1.7324   -1.4105   -5.6027 H       1  LIG   0.1498   0.1500 
26    H5      -1.9454   -3.5073   -4.2763 H       1  LIG   0.1478   0.1500 
27    H6      -1.4629   -5.9330   -4.0971 H       1  LIG   0.0270   0.1500 
28    H7       0.4503   -6.0346   -7.7206 H       1  LIG   0.0275   0.1500 
29    H8      -0.0812    0.6111  -10.0029 H       1  LIG   0.1482   0.1500 
30    H9       0.9419    0.9785  -12.1888 H       1  LIG   0.1377   0.1500 
31    H10      2.0635   -0.8726  -13.3823 H       1  LIG   0.1369   0.1500 
32    H11      2.1552   -3.1297  -12.3696 H       1  LIG   0.1405   0.1500 
@<TRIPOS>BOND
1     1     2     1
2     1     22    1
3     1     23    1
4     1     24    1
5     2     3     1
6     3     4     2
7     3     5     1
8     5     14    ar
9     5     6     ar
10    6     7     ar
11    6     25    1
12    7     12    ar
13    7     8     ar
14    8     9     ar
15    8     26    1
16    9     10    ar
17    9     27    1
18    10    11    ar
19    11    12    ar
20    11    28    1
21    12    13    ar
22    13    21    1
23    13    14    ar
24    14    15    1
25    15    20    ar
26    15    16    ar
27    16    17    ar
28    16    29    1
29    17    18    ar
30    17    30    1
31    18    19    ar
32    18    31    1
33    19    20    ar
34    19    32    1
35    20    21    1
@<TRIPOS>SUBSTRUCTURE
1   LIG    1    
 
########## Number      : 859
########## Name        : ZINC00019625
########## Description : AM1BCC_CHARGES =  -0.0000 ORIGINAL_CHARGES =   0.0000

@<TRIPOS>MOLECULE
ZINC00019625
34    36    1     0     0    
SMALL
USER_CHARGES
****
****
@<TRIPOS>ATOM
1     C1       6.8842    0.4948    1.6459 C.3     1  LIG  -0.0628   0.1435 
2     C2       5.9815    0.1884    2.8003 C.ar    1  LIG  -0.0263  -0.1435 
3     C3       6.0525   -1.0410    3.4620 C.ar    1  LIG  -0.0086   0.1900 
4     C4       5.2037   -1.3723    4.5324 C.ar    1  LIG   0.2653   0.1000 
5     C5       4.2331   -0.4308    4.9233 C.ar    1  LIG  -0.2787   0.0862 
6     C6       3.2854   -0.6852    6.0331 C.2     1  LIG   0.6072   0.4694 
7     O1       3.2881   -1.7183    6.6897 O.2     1  LIG  -0.5833  -0.5700 
8     C7       2.3104    0.3812    6.3324 C.2     1  LIG  -0.3239  -0.1356 
9     C8       2.3229    1.5091    5.6086 C.2     1  LIG   0.2089   0.0483 
10    O2       3.2149    1.7598    4.5817 O.3     1  LIG  -0.2096  -0.1592 
11    C9       4.1372    0.7964    4.2602 C.ar    1  LIG   0.1588   0.0825 
12    C10      5.0041    1.0935    3.2083 C.ar    1  LIG   0.0364   0.1900 
13    F1       4.8901    2.2729    2.5774 F       1  LIG  -0.1251  -0.1900 
14    C11      1.3783    2.6138    5.8688 C.ar    1  LIG  -0.1113   0.0284 
15    C12      1.8194    3.9449    5.8123 C.ar    1  LIG  -0.0513  -0.1500 
16    C13      0.9361    5.0069    6.0421 C.ar    1  LIG  -0.1911  -0.1500 
17    C14     -0.4081    4.7683    6.3364 C.ar    1  LIG   0.1570   0.1000 
18    C15     -0.8447    3.4422    6.3706 C.ar    1  LIG   0.0403   0.1900 
19    C16      0.0257    2.3746    6.1439 C.ar    1  LIG  -0.0871  -0.1500 
20    F2      -2.1353    3.1760    6.6265 F       1  LIG  -0.1437  -0.1900 
21    N1      -1.2901    5.8179    6.5368 N.pl3   1  LIG  -0.8278  -0.9000 
22    N2       5.3253   -2.6220    5.1259 N.pl3   1  LIG  -0.8557  -0.9000 
23    F3       6.9672   -1.9405    3.0615 F       1  LIG  -0.1439  -0.1900 
24    H1      -0.9563    6.7719    6.5645 H       1  LIG   0.4101   0.4000 
25    H2      -2.2497    5.6266    6.7951 H       1  LIG   0.4156   0.4000 
26    H3       6.0677   -3.2492    4.8452 H       1  LIG   0.4418   0.4000 
27    H4       4.7519   -2.8625    5.9259 H       1  LIG   0.4738   0.4000 
28    H5       7.8594    0.0130    1.7720 H       1  LIG   0.0619   0.0000 
29    H6       6.4330    0.1417    0.7136 H       1  LIG   0.0629   0.0000 
30    H7       7.0669    1.5714    1.5643 H       1  LIG   0.0631   0.0000 
31    H8       1.6197    0.2031    7.1487 H       1  LIG   0.1715   0.1500 
32    H9       2.8603    4.1756    5.5936 H       1  LIG   0.1542   0.1500 
33    H10      1.3133    6.0257    5.9890 H       1  LIG   0.1440   0.1500 
34    H11     -0.3740    1.3643    6.1742 H       1  LIG   0.1574   0.1500 
@<TRIPOS>BOND
1     1     2     1
2     1     28    1
3     1     29    1
4     1     30    1
5     2     12    ar
6     2     3     ar
7     3     4     ar
8     3     23    1
9     4     5     ar
10    4     22    1
11    5     11    ar
12    5     6     1
13    6     7     2
14    6     8     1
15    8     9     2
16    8     31    1
17    9     10    1
18    9     14    1
19    10    11    1
20    11    12    ar
21    12    13    1
22    14    19    ar
23    14    15    ar
24    15    16    ar
25    15    32    1
26    16    17    ar
27    16    33    1
28    17    18    ar
29    17    21    1
30    18    19    ar
31    18    20    1
32    19    34    1
33    21    24    1
34    21    25    1
35    22    26    1
36    22    27    1
@<TRIPOS>SUBSTRUCTURE
1   LIG    1    
 
########## Number      : 860
########## Name        : ZINC00019636
########## Description : AM1BCC_CHARGES =   0.0004 ORIGINAL_CHARGES =   0.0000

@<TRIPOS>MOLECULE
ZINC00019636
32    34    1     0     0    
SMALL
USER_CHARGES
****
****
@<TRIPOS>ATOM
1     C1       5.0800   -9.4938   -1.1382 C.3     1  LIG   0.2137   0.3691 
2     N1       4.4133   -9.1088    0.0992 N.pl3   1  LIG  -0.6988  -0.8382 
3     C2       3.9843  -10.1678    1.0039 C.3     1  LIG   0.2130   0.3691 
4     C3       4.1929   -7.7683    0.4085 C.ar    1  LIG   0.2173   0.1000 
5     C4       4.5939   -6.7258   -0.4461 C.ar    1  LIG  -0.2114  -0.1500 
6     C5       4.3755   -5.3722   -0.1394 C.ar    1  LIG  -0.0653  -0.1500 
7     C6       3.7429   -4.9938    1.0480 C.ar    1  LIG  -0.1873   0.0530 
8     C7       3.3312   -6.0179    1.9079 C.ar    1  LIG  -0.0343  -0.1500 
9     C8       3.5535   -7.3680    1.5946 C.ar    1  LIG  -0.2187  -0.1500 
10    C9       3.4820   -3.5913    1.4205 C.2     1  LIG   0.4539   0.3251 
11    N2       2.6320   -3.2304    2.3617 N.2     1  LIG  -0.5390  -0.5653 
12    C10      2.6025   -1.8526    2.5021 C.ar    1  LIG   0.0916   0.2272 
13    C11      1.8027   -1.1247    3.4088 C.ar    1  LIG  -0.0793  -0.1500 
14    C12      1.8817    0.2707    3.4365 C.ar    1  LIG  -0.1313  -0.1500 
15    C13      2.7425    0.9458    2.5779 C.ar    1  LIG  -0.1251  -0.1500 
16    C14      3.5446    0.2468    1.6719 C.ar    1  LIG  -0.0894  -0.1500 
17    C15      3.4582   -1.1546    1.6512 C.ar    1  LIG  -0.0897   0.0400 
18    S1       4.3055   -2.2794    0.6661 S.3     1  LIG  -0.0638  -0.0800 
19    H1       4.5113   -9.1529   -2.0103 H       1  LIG   0.0318   0.0000 
20    H2       6.0939   -9.0808   -1.1801 H       1  LIG   0.0359   0.0000 
21    H3       5.1772  -10.5812   -1.2287 H       1  LIG   0.0463   0.0000 
22    H4       4.4811  -10.0757    1.9760 H       1  LIG   0.0368   0.0000 
23    H5       2.8983  -10.1436    1.1460 H       1  LIG   0.0327   0.0000 
24    H6       4.2307  -11.1619    0.6152 H       1  LIG   0.0461   0.0000 
25    H7       5.0924   -6.9374   -1.3894 H       1  LIG   0.1357   0.1500 
26    H8       4.7099   -4.6357   -0.8658 H       1  LIG   0.1347   0.1500 
27    H9       2.8304   -5.7865    2.8464 H       1  LIG   0.1521   0.1500 
28    H10      3.2052   -8.1012    2.3183 H       1  LIG   0.1365   0.1500 
29    H11      1.1284   -1.6457    4.0822 H       1  LIG   0.1497   0.1500 
30    H12      1.2651    0.8303    4.1349 H       1  LIG   0.1343   0.1500 
31    H13      2.7934    2.0312    2.6107 H       1  LIG   0.1339   0.1500 
32    H14      4.2152    0.7791    1.0043 H       1  LIG   0.1378   0.1500 
@<TRIPOS>BOND
1     1     2     1
2     1     19    1
3     1     20    1
4     1     21    1
5     2     3     1
6     2     4     1
7     3     22    1
8     3     23    1
9     3     24    1
10    4     9     ar
11    4     5     ar
12    5     6     ar
13    5     25    1
14    6     7     ar
15    6     26    1
16    7     8     ar
17    7     10    1
18    8     9     ar
19    8     27    1
20    9     28    1
21    10    18    1
22    10    11    2
23    11    12    1
24    12    17    ar
25    12    13    ar
26    13    14    ar
27    13    29    1
28    14    15    ar
29    14    30    1
30    15    16    ar
31    15    31    1
32    16    17    ar
33    16    32    1
34    17    18    1
@<TRIPOS>SUBSTRUCTURE
1   LIG    1    
 
########## Number      : 861
########## Name        : ZINC00019638
########## Description : AM1BCC_CHARGES =   0.0000 ORIGINAL_CHARGES =   0.0000

@<TRIPOS>MOLECULE
ZINC00019638
24    26    1     0     0    
SMALL
USER_CHARGES
****
****
@<TRIPOS>ATOM
1     C1       5.6731   -7.9272    0.8071 C.ar    1  LIG  -0.1484  -0.1500 
2     C2       5.8263   -8.4886   -0.4586 C.ar    1  LIG  -0.0897  -0.1500 
3     C3       5.1518   -7.9388   -1.5443 C.ar    1  LIG  -0.1754  -0.1500 
4     C4       4.3258   -6.8309   -1.3558 C.ar    1  LIG   0.1743   0.1900 
5     C5       4.1486   -6.2514   -0.0912 C.ar    1  LIG  -0.1549   0.0530 
6     C6       4.8430   -6.8162    0.9904 C.ar    1  LIG  -0.0898  -0.1500 
7     C7       3.2798   -5.0768    0.0631 C.2     1  LIG   0.4189   0.3251 
8     N1       3.1449   -4.1322   -0.8447 N.2     1  LIG  -0.5024  -0.5653 
9     C8       2.2433   -3.1694   -0.4204 C.ar    1  LIG   0.0826   0.2272 
10    C9       1.8633   -2.0129   -1.1343 C.ar    1  LIG  -0.0709  -0.1500 
11    C10      0.9367   -1.1273   -0.5764 C.ar    1  LIG  -0.1326  -0.1500 
12    C11      0.3867   -1.3780    0.6760 C.ar    1  LIG  -0.1179  -0.1500 
13    C12      0.7464   -2.5167    1.4019 C.ar    1  LIG  -0.0923  -0.1500 
14    C13      1.6781   -3.4004    0.8337 C.ar    1  LIG  -0.0868   0.0400 
15    S1       2.3099   -4.8676    1.4706 S.3     1  LIG  -0.0416  -0.0800 
16    F1       3.6836   -6.3343   -2.4249 F       1  LIG  -0.1187  -0.1900 
17    H1       6.2038   -8.3510    1.6554 H       1  LIG   0.1412   0.1500 
18    H2       6.4719   -9.3508   -0.5976 H       1  LIG   0.1406   0.1500 
19    H3       5.2655   -8.3689   -2.5347 H       1  LIG   0.1528   0.1500 
20    H4       4.7639   -6.3976    1.9911 H       1  LIG   0.1450   0.1500 
21    H5       2.2887   -1.8112   -2.1131 H       1  LIG   0.1535   0.1500 
22    H6       0.6451   -0.2369   -1.1271 H       1  LIG   0.1369   0.1500 
23    H7      -0.3330   -0.6804    1.0972 H       1  LIG   0.1360   0.1500 
24    H8       0.3130   -2.7076    2.3789 H       1  LIG   0.1396   0.1500 
@<TRIPOS>BOND
1     1     6     ar
2     1     2     ar
3     1     17    1
4     2     3     ar
5     2     18    1
6     3     4     ar
7     3     19    1
8     4     5     ar
9     4     16    1
10    5     6     ar
11    5     7     1
12    6     20    1
13    7     15    1
14    7     8     2
15    8     9     1
16    9     14    ar
17    9     10    ar
18    10    11    ar
19    10    21    1
20    11    12    ar
21    11    22    1
22    12    13    ar
23    12    23    1
24    13    14    ar
25    13    24    1
26    14    15    1
@<TRIPOS>SUBSTRUCTURE
1   LIG    1    
 
########## Number      : 862
########## Name        : ZINC00019639
########## Description : AM1BCC_CHARGES =  -0.0001 ORIGINAL_CHARGES =   0.0000

@<TRIPOS>MOLECULE
ZINC00019639
23    25    1     0     0    
SMALL
USER_CHARGES
****
****
@<TRIPOS>ATOM
1     C1       4.7025   -8.2857   -1.4060 C.ar    1  LIG  -0.1311  -0.1500 
2     C2       4.1233   -9.0649   -0.4103 C.ar    1  LIG  -0.1156  -0.1500 
3     C3       3.1569   -8.5308    0.4464 C.ar    1  LIG  -0.0916  -0.1500 
4     C4       2.7865   -7.1873    0.2750 C.ar    1  LIG  -0.0893   0.0400 
5     C5       3.3532   -6.3873   -0.7157 C.ar    1  LIG   0.0825   0.2272 
6     C6       4.3271   -6.9490   -1.5687 C.ar    1  LIG  -0.0716  -0.1500 
7     N1       2.8834   -5.0849   -0.7567 N.2     1  LIG  -0.5143  -0.5653 
8     C7       1.9754   -4.8780    0.1772 C.2     1  LIG   0.4071   0.3251 
9     S1       1.6433   -6.2561    1.1572 S.3     1  LIG  -0.0258  -0.0800 
10    C8       1.2927   -3.5845    0.3806 C.ar    1  LIG  -0.0765   0.0530 
11    C9       0.3250   -3.3672    1.3690 C.ar    1  LIG  -0.2370  -0.1500 
12    C10     -0.2569   -2.1100    1.4751 C.ar    1  LIG   0.3937   0.1600 
13    N2       0.0471   -1.0629    0.6813 N.ar    1  LIG  -0.6538  -0.6200 
14    C11      0.9802   -1.2877   -0.2653 C.ar    1  LIG   0.3887   0.1600 
15    C12      1.6195   -2.5054   -0.4528 C.ar    1  LIG  -0.2018  -0.1500 
16    H1       5.4525   -8.7174   -2.0633 H       1  LIG   0.1382   0.1500 
17    H2       4.4249  -10.1030   -0.2955 H       1  LIG   0.1374   0.1500 
18    H3       2.7082   -9.1439    1.2220 H       1  LIG   0.1409   0.1500 
19    H4       4.7834   -6.3461   -2.3484 H       1  LIG   0.1525   0.1500 
20    H5       0.0082   -4.1418    2.0589 H       1  LIG   0.1477   0.1500 
21    H6      -1.0099   -1.9113    2.2315 H       1  LIG   0.0261   0.1500 
22    H7       1.2139   -0.4360   -0.8960 H       1  LIG   0.0271   0.1500 
23    H8       2.3605   -2.5983   -1.2415 H       1  LIG   0.1664   0.1500 
@<TRIPOS>BOND
1     1     6     ar
2     1     2     ar
3     1     16    1
4     2     3     ar
5     2     17    1
6     3     4     ar
7     3     18    1
8     4     9     1
9     4     5     ar
10    5     6     ar
11    5     7     1
12    6     19    1
13    7     8     2
14    8     9     1
15    8     10    1
16    10    15    ar
17    10    11    ar
18    11    12    ar
19    11    20    1
20    12    13    ar
21    12    21    1
22    13    14    ar
23    14    15    ar
24    14    22    1
25    15    23    1
@<TRIPOS>SUBSTRUCTURE
1   LIG    1    
 
########## Number      : 863
########## Name        : ZINC00019726
########## Description : AM1BCC_CHARGES =  -0.0001 ORIGINAL_CHARGES =   0.0000

@<TRIPOS>MOLECULE
ZINC00019726
14    15    1     0     0    
SMALL
USER_CHARGES
****
****
@<TRIPOS>ATOM
1     C1       6.6899   -8.8791   -0.5459 C.ar    1  LIG  -0.1316  -0.1500 
2     C2       6.4626  -10.2327   -0.3223 C.ar    1  LIG  -0.1191  -0.1500 
3     C3       5.1629  -10.7449   -0.2839 C.ar    1  LIG  -0.0904  -0.1500 
4     C4       4.0921   -9.8571   -0.4771 C.ar    1  LIG  -0.0852   0.0400 
5     C5       4.2958   -8.4926   -0.7036 C.ar    1  LIG   0.0764   0.2272 
6     C6       5.6187   -8.0015   -0.7374 C.ar    1  LIG  -0.0724  -0.1500 
7     N1       3.1412   -7.7434   -0.8762 N.2     1  LIG  -0.5168  -0.5653 
8     C7       2.0918   -8.5263   -0.7818 C.2     1  LIG   0.3541   0.2281 
9     S1       2.3990  -10.1829   -0.4858 S.3     1  LIG  -0.0425  -0.0800 
10    H1       7.7076   -8.4986   -0.5725 H       1  LIG   0.1369   0.1500 
11    H2       7.3059  -10.9028   -0.1751 H       1  LIG   0.1362   0.1500 
12    H3       4.9920  -11.8027   -0.1088 H       1  LIG   0.1401   0.1500 
13    H4       5.8044   -6.9456   -0.9116 H       1  LIG   0.1520   0.1500 
14    H5       1.0835   -8.1491   -0.8850 H       1  LIG   0.0622   0.1500 
@<TRIPOS>BOND
1     1     6     ar
2     1     2     ar
3     1     10    1
4     2     3     ar
5     2     11    1
6     3     4     ar
7     3     12    1
8     4     9     1
9     4     5     ar
10    5     6     ar
11    5     7     1
12    6     13    1
13    7     8     2
14    8     9     1
15    8     14    1
@<TRIPOS>SUBSTRUCTURE
1   LIG    1    
 
########## Number      : 864
########## Name        : ZINC00020014
########## Description : AM1BCC_CHARGES =   0.0001 ORIGINAL_CHARGES =   0.0000

@<TRIPOS>MOLECULE
ZINC00020014
23    24    1     0     0    
SMALL
USER_CHARGES
****
****
@<TRIPOS>ATOM
1     C1       3.8504   -8.5611   -1.5326 C.ar    1  LIG  -0.1083  -0.1500 
2     C2       4.0494   -7.2952   -2.0810 C.ar    1  LIG  -0.1396  -0.1500 
3     C3       4.0319   -6.1661   -1.2604 C.ar    1  LIG  -0.0852  -0.1500 
4     C4       3.8086   -6.2993    0.1152 C.ar    1  LIG  -0.0544   0.1015 
5     C5       3.6183   -7.5738    0.6617 C.ar    1  LIG  -0.0918  -0.1500 
6     C6       3.6365   -8.7005   -0.1623 C.ar    1  LIG  -0.1434  -0.1500 
7     S1       3.7942   -4.8617    1.1743 S.3     1  LIG  -0.1139  -0.2025 
8     C7       2.1666   -4.3532    0.8989 C.2     1  LIG  -0.2296   0.1154 
9     C8       1.1226   -4.8595    1.5656 C.2     1  LIG   0.1152  -0.0410 
10    N1      -0.1607   -4.4401    1.3425 N.am    1  LIG  -0.4655  -0.5390 
11    C9      -0.4923   -3.4630    0.4223 C.2     1  LIG   0.8041   0.6900 
12    O1      -1.6502   -3.0950    0.2285 O.2     1  LIG  -0.6273  -0.5700 
13    N2       0.5900   -2.9265   -0.2673 N.am    1  LIG  -0.5846  -0.4900 
14    C10      1.9229   -3.2801   -0.1101 C.2     1  LIG   0.7309   0.6156 
15    O2       2.8270   -2.7518   -0.7518 O.2     1  LIG  -0.5986  -0.5700 
16    H1      -0.9079   -4.8685    1.8803 H       1  LIG   0.3568   0.3700 
17    H2       0.3847   -2.2032   -0.9485 H       1  LIG   0.3555   0.3700 
18    H3       3.8649   -9.4388   -2.1724 H       1  LIG   0.1326   0.1500 
19    H4       4.2201   -7.1868   -3.1484 H       1  LIG   0.1369   0.1500 
20    H5       4.1938   -5.1879   -1.7069 H       1  LIG   0.1642   0.1500 
21    H6       3.4528   -7.7039    1.7284 H       1  LIG   0.1374   0.1500 
22    H7       3.4853   -9.6875    0.2655 H       1  LIG   0.1334   0.1500 
23    H8       1.2250   -5.6324    2.3198 H       1  LIG   0.1753   0.1500 
@<TRIPOS>BOND
1     1     6     ar
2     1     2     ar
3     1     18    1
4     2     3     ar
5     2     19    1
6     3     4     ar
7     3     20    1
8     4     5     ar
9     4     7     1
10    5     6     ar
11    5     21    1
12    6     22    1
13    7     8     1
14    8     14    1
15    8     9     2
16    9     10    1
17    9     23    1
18    10    11    am
19    10    16    1
20    11    12    2
21    11    13    am
22    13    14    am
23    13    17    1
24    14    15    2
@<TRIPOS>SUBSTRUCTURE
1   LIG    1    
 
########## Number      : 865
########## Name        : ZINC00020220
########## Description : AM1BCC_CHARGES =   0.0002 ORIGINAL_CHARGES =   0.0000

@<TRIPOS>MOLECULE
ZINC00020220
42    45    1     0     0    
SMALL
USER_CHARGES
****
****
@<TRIPOS>ATOM
1     C1       5.1862   -4.9571    2.2391 C.ar    1  LIG  -0.0490  -0.1500 
2     C2       5.3864   -6.2866    2.6109 C.ar    1  LIG  -0.1940   0.0862 
3     C3       4.4507   -7.2781    2.2682 C.ar    1  LIG   0.2200   0.1000 
4     C4       3.2998   -6.8808    1.5591 C.ar    1  LIG  -0.2106  -0.1500 
5     C5       3.0598   -5.5435    1.1738 C.ar    1  LIG   0.0981   0.1000 
6     C6       4.0400   -4.6038    1.5293 C.ar    1  LIG   0.0019   0.1900 
7     F1       3.8833   -3.3060    1.2250 F       1  LIG  -0.1661  -0.1900 
8     N1       1.9026   -5.2184    0.4606 N.pl3   1  LIG  -0.6498  -0.8382 
9     C7       1.8848   -4.0379   -0.4109 C.3     1  LIG   0.1696   0.3691 
10    C8       0.8203   -4.1900   -1.4931 C.3     1  LIG   0.0980   0.5030 
11    C9      -0.4479   -5.7561   -0.0375 C.3     1  LIG   0.0976   0.5030 
12    C10      0.6130   -5.6119    1.0487 C.3     1  LIG   0.1682   0.3691 
13    N2       4.6945   -8.6286    2.6463 N.pl3   1  LIG  -0.5003  -0.3690 
14    C11      5.7815   -8.9210    3.4473 C.2     1  LIG   0.0568  -0.0500 
15    C12      6.7278   -8.0588    3.8406 C.2     1  LIG  -0.2546  -0.2356 
16    C13      6.6045   -6.6495    3.3813 C.2     1  LIG   0.5957   0.4694 
17    O1       7.4685   -5.8127    3.6129 O.2     1  LIG  -0.5201  -0.5700 
18    C14      7.8665   -8.5368    4.7472 C.2     1  LIG   0.9331   1.0500 
19    O2       8.2216   -7.7240    5.6480 O.co2   1  LIG  -0.7739  -0.9000 
20    C15      3.7532   -9.7168    2.3131 C.3     1  LIG   0.1517   0.0690 
21    C16      3.5152  -10.1605    0.8889 C.3     1  LIG  -0.1522  -0.2000 
22    C17      4.2087  -11.0788    1.8421 C.3     1  LIG  -0.1101  -0.2000 
23    H1       5.9029   -4.1833    2.4997 H       1  LIG   0.1835   0.1500 
24    H2       2.5694   -7.6342    1.2738 H       1  LIG   0.1362   0.1500 
25    H3       1.6837   -3.1389    0.1848 H       1  LIG   0.0566   0.0000 
26    H4       2.8504   -3.9068   -0.9141 H       1  LIG   0.1249   0.0000 
27    H5       0.6890   -3.2650   -2.0620 H       1  LIG   0.0992   0.0000 
28    H6       1.0493   -5.0109   -2.1811 H       1  LIG   0.1149   0.0000 
29    H7      -1.4449   -5.8982    0.3896 H       1  LIG   0.0981   0.0000 
30    H8      -0.2240   -6.5811   -0.7221 H       1  LIG   0.1142   0.0000 
31    H9       0.6678   -6.5610    1.5922 H       1  LIG   0.1168   0.0000 
32    H10      0.3055   -4.8481    1.7746 H       1  LIG   0.0478   0.0000 
33    H11      5.8180   -9.9590    3.7649 H       1  LIG   0.1868   0.1500 
34    H12      2.8904   -9.7079    2.9742 H       1  LIG   0.0767   0.1000 
35    H13      2.4998  -10.4027    0.6001 H       1  LIG   0.0587   0.1000 
36    H14      4.1111   -9.7141    0.1020 H       1  LIG   0.0850   0.1000 
37    H15      5.2653  -11.2547    1.6809 H       1  LIG   0.1067   0.1000 
38    H16      3.6633  -11.9428    2.2019 H       1  LIG   0.0776   0.1000 
39    N3      -0.4951   -4.5059   -0.8563 N.4     1  LIG  -0.7606  -0.9060 
40    H17     -1.2132   -4.6032   -1.5869 H       1  LIG   0.4451   0.4500 
41    H18     -0.7953   -3.7158   -0.2684 H       1  LIG   0.4448   0.4500 
42    O3       8.3143   -9.6942    4.5000 O.co2   1  LIG  -0.8228  -0.9000 
@<TRIPOS>BOND
1     1     6     ar
2     1     2     ar
3     1     23    1
4     2     16    1
5     2     3     ar
6     3     4     ar
7     3     13    1
8     4     5     ar
9     4     24    1
10    5     6     ar
11    5     8     1
12    6     7     1
13    8     12    1
14    8     9     1
15    9     10    1
16    9     25    1
17    9     26    1
18    10    27    1
19    10    28    1
20    10    39    1
21    11    12    1
22    11    29    1
23    11    30    1
24    11    39    1
25    12    31    1
26    12    32    1
27    13    14    1
28    13    20    1
29    14    15    2
30    14    33    1
31    15    16    1
32    15    18    1
33    16    17    2
34    18    19    2
35    18    42    1
36    20    22    1
37    20    21    1
38    20    34    1
39    21    22    1
40    21    35    1
41    21    36    1
42    22    37    1
43    22    38    1
44    39    40    1
45    39    41    1
@<TRIPOS>SUBSTRUCTURE
1   LIG    1    
 
########## Number      : 866
########## Name        : ZINC00020233
########## Description : AM1BCC_CHARGES =   0.9998 ORIGINAL_CHARGES =   1.0000

@<TRIPOS>MOLECULE
ZINC00020233
45    47    1     0     0    
SMALL
USER_CHARGES
****
****
@<TRIPOS>ATOM
1     C1       7.3293   -7.9531    0.8434 C.3     1  LIG  -0.0604   0.1435 
2     C2       6.7147   -7.8420    2.2110 C.ar    1  LIG  -0.1454  -0.1435 
3     C3       7.0406   -8.7938    3.1856 C.ar    1  LIG  -0.1778  -0.1500 
4     C4       6.4780   -8.7127    4.4514 C.ar    1  LIG   0.4110   0.3100 
5     N1       5.6112   -7.7211    4.7356 N.ar    1  LIG  -0.2831  -0.3100 
6     N2       5.2887   -6.7792    3.7847 N.ar    1  LIG  -0.3513  -0.3100 
7     C5       5.8347   -6.8097    2.5479 C.ar    1  LIG   0.4918   0.4100 
8     N3       5.4694   -5.8606    1.5917 N.pl3   1  LIG  -0.8021  -0.8691 
9     C6       4.4751   -4.8540    1.9258 C.3     1  LIG   0.1675   0.3691 
10    C7       4.1426   -4.0304    0.6822 C.3     1  LIG   0.0915   0.5030 
11    C8       2.4159   -2.5459   -0.3552 C.3     1  LIG   0.0705   0.5030 
12    C9       1.2347   -1.6424   -0.0360 C.3     1  LIG   0.0986   0.2800 
13    O1       1.6404   -0.5660    0.8100 O.3     1  LIG  -0.3705  -0.5600 
14    C10      2.1280   -1.0500    2.0617 C.3     1  LIG   0.0980   0.2800 
15    C11      3.3571   -1.9250    1.8600 C.3     1  LIG   0.0672   0.5030 
16    C12      6.7625   -9.6652    5.5390 C.ar    1  LIG  -0.1647   0.0000 
17    C13      8.0144  -10.2950    5.6666 C.ar    1  LIG  -0.1109  -0.1500 
18    C14      8.2733  -11.1958    6.7047 C.ar    1  LIG  -0.1304  -0.1500 
19    C15      7.2861  -11.4864    7.6407 C.ar    1  LIG  -0.1031  -0.1500 
20    C16      6.0409  -10.8747    7.5408 C.ar    1  LIG  -0.1331  -0.1500 
21    C17      5.7835   -9.9737    6.5030 C.ar    1  LIG  -0.0853  -0.1500 
22    H1       6.1590   -5.6352    0.8833 H       1  LIG   0.3948   0.4000 
23    H2       7.9072   -8.8772    0.7348 H       1  LIG   0.0654   0.0000 
24    H3       6.5511   -7.9653    0.0733 H       1  LIG   0.0620   0.0000 
25    H4       8.0078   -7.1129    0.6645 H       1  LIG   0.0466   0.0000 
26    H5       7.7227   -9.6019    2.9343 H       1  LIG   0.1669   0.1500 
27    H6       4.8664   -4.2096    2.7201 H       1  LIG   0.0492   0.0000 
28    H7       3.5618   -5.3374    2.2938 H       1  LIG   0.0896   0.0000 
29    H8       3.8271   -4.6955   -0.1303 H       1  LIG   0.1162   0.0000 
30    H9       4.9976   -3.4377    0.3376 H       1  LIG   0.1006   0.0000 
31    H10      3.2198   -1.9975   -0.8582 H       1  LIG   0.1157   0.0000 
32    H11      2.1038   -3.4035   -0.9589 H       1  LIG   0.1118   0.0000 
33    H12      0.8416   -1.2077   -0.9604 H       1  LIG   0.1302   0.0000 
34    H13      0.4186   -2.1976    0.4416 H       1  LIG   0.0670   0.0000 
35    H14      2.3902   -0.1811    2.6735 H       1  LIG   0.1308   0.0000 
36    H15      1.3289   -1.5913    2.5822 H       1  LIG   0.0677   0.0000 
37    H16      3.6954   -2.3368    2.8137 H       1  LIG   0.1165   0.0000 
38    H17      4.1682   -1.3744    1.3717 H       1  LIG   0.1146   0.0000 
39    H18      8.8189  -10.0837    4.9653 H       1  LIG   0.1309   0.1500 
40    H19      9.2494  -11.6668    6.7815 H       1  LIG   0.1422   0.1500 
41    H20      7.4873  -12.1857    8.4469 H       1  LIG   0.1433   0.1500 
42    H21      5.2661  -11.0971    8.2691 H       1  LIG   0.1429   0.1500 
43    H22      4.7958   -9.5188    6.4529 H       1  LIG   0.1478   0.1500 
44    N4       2.9914   -3.0792    0.9454 N.4     1  LIG  -0.6805  -0.9590 
45    H23      2.2451   -3.6206    1.4038 H       1  LIG   0.4496   0.4500 
@<TRIPOS>BOND
1     1     2     1
2     1     23    1
3     1     24    1
4     1     25    1
5     2     7     ar
6     2     3     ar
7     3     4     ar
8     3     26    1
9     4     5     ar
10    4     16    1
11    5     6     ar
12    6     7     ar
13    7     8     1
14    8     9     1
15    8     22    1
16    9     10    1
17    9     27    1
18    9     28    1
19    10    29    1
20    10    30    1
21    10    44    1
22    11    12    1
23    11    31    1
24    11    32    1
25    11    44    1
26    12    13    1
27    12    33    1
28    12    34    1
29    13    14    1
30    14    15    1
31    14    35    1
32    14    36    1
33    15    37    1
34    15    38    1
35    15    44    1
36    16    21    ar
37    16    17    ar
38    17    18    ar
39    17    39    1
40    18    19    ar
41    18    40    1
42    19    20    ar
43    19    41    1
44    20    21    ar
45    20    42    1
46    21    43    1
47    44    45    1
@<TRIPOS>SUBSTRUCTURE
1   LIG    1    
 
########## Number      : 867
########## Name        : ZINC00020237
########## Description : AM1BCC_CHARGES =   0.9999 ORIGINAL_CHARGES =   1.0000

@<TRIPOS>MOLECULE
ZINC00020237
40    40    1     0     0    
SMALL
USER_CHARGES
****
****
@<TRIPOS>ATOM
1     C1       5.3046   -8.6627   -2.4824 C.3     1  LIG  -0.1341   0.0000 
2     C2       6.0712   -8.7321   -1.1727 C.3     1  LIG   0.1154   0.5030 
3     C3       5.7515   -8.3700    1.2824 C.3     1  LIG   0.1156   0.5030 
4     C4       4.8604   -7.7389    2.3359 C.3     1  LIG  -0.1347   0.0000 
5     C5       5.5932   -6.3983   -0.3134 C.3     1  LIG   0.0088   0.5640 
6     C6       4.2921   -5.6300   -0.1725 C.2     1  LIG   0.6423   0.5690 
7     O1       3.2085   -6.1953   -0.2857 O.2     1  LIG  -0.5891  -0.5700 
8     N1       4.5186   -4.2733    0.0136 N.am    1  LIG  -0.4208  -0.5470 
9     C7       3.5469   -3.2634    0.2532 C.ar    1  LIG  -0.0019   0.1170 
10    C8       2.3697   -3.4580    1.0117 C.ar    1  LIG  -0.0440  -0.1435 
11    C9       1.4431   -2.4025    1.1219 C.ar    1  LIG  -0.1200  -0.1500 
12    C10      1.6946   -1.1571    0.5584 C.ar    1  LIG  -0.1015  -0.1500 
13    C11      2.8844   -0.9397   -0.1224 C.ar    1  LIG  -0.1143  -0.1500 
14    C12      3.8193   -1.9753   -0.2802 C.ar    1  LIG  -0.0823  -0.1435 
15    C13      5.0780   -1.6731   -1.0540 C.3     1  LIG  -0.0625   0.1435 
16    C14      2.0412   -4.7037    1.7887 C.3     1  LIG  -0.0596   0.1435 
17    H1       5.4498   -3.9412   -0.2201 H       1  LIG   0.3267   0.3700 
18    H2       5.7827   -9.3062   -3.2279 H       1  LIG   0.0985   0.0000 
19    H3       4.2734   -9.0079   -2.3534 H       1  LIG   0.0764   0.0000 
20    H4       5.2748   -7.6489   -2.8912 H       1  LIG   0.0665   0.0000 
21    H5       6.0861   -9.7692   -0.8217 H       1  LIG   0.1027   0.0000 
22    H6       7.1002   -8.3704   -1.2687 H       1  LIG   0.0974   0.0000 
23    H7       5.6138   -9.4563    1.2996 H       1  LIG   0.1024   0.0000 
24    H8       6.8090   -8.1371    1.4445 H       1  LIG   0.0961   0.0000 
25    H9       5.0716   -8.1817    3.3147 H       1  LIG   0.0982   0.0000 
26    H10      5.0343   -6.6626    2.4223 H       1  LIG   0.0646   0.0000 
27    H11      3.8014   -7.9046    2.1138 H       1  LIG   0.0778   0.0000 
28    H12      6.3433   -6.0591    0.4083 H       1  LIG   0.1119   0.0000 
29    H13      5.9806   -6.2305   -1.3229 H       1  LIG   0.1218   0.0000 
30    H14      0.5209   -2.5417    1.6831 H       1  LIG   0.1496   0.1500 
31    H15      0.9730   -0.3530    0.6680 H       1  LIG   0.1522   0.1500 
32    H16      3.0753    0.0456   -0.5415 H       1  LIG   0.1497   0.1500 
33    H17      5.0776   -0.6493   -1.4438 H       1  LIG   0.0683   0.0000 
34    H18      5.9548   -1.7762   -0.4068 H       1  LIG   0.0398   0.0000 
35    H19      5.1698   -2.3461   -1.9127 H       1  LIG   0.0382   0.0000 
36    H20      2.9441   -5.2158    2.1311 H       1  LIG   0.0253   0.0000 
37    H21      1.4827   -4.4542    2.6988 H       1  LIG   0.0584   0.0000 
38    H22      1.4208   -5.3779    1.1920 H       1  LIG   0.0700   0.0000 
39    N2       5.3786   -7.8960   -0.1111 N.4     1  LIG  -0.6875  -0.9590 
40    H23      4.3684   -8.0733   -0.2166 H       1  LIG   0.4776   0.4500 
@<TRIPOS>BOND
1     1     2     1
2     1     18    1
3     1     19    1
4     1     20    1
5     2     21    1
6     2     22    1
7     2     39    1
8     3     4     1
9     3     23    1
10    3     24    1
11    3     39    1
12    4     25    1
13    4     26    1
14    4     27    1
15    5     6     1
16    5     28    1
17    5     29    1
18    5     39    1
19    6     7     2
20    6     8     am
21    8     9     1
22    8     17    1
23    9     14    ar
24    9     10    ar
25    10    11    ar
26    10    16    1
27    11    12    ar
28    11    30    1
29    12    13    ar
30    12    31    1
31    13    14    ar
32    13    32    1
33    14    15    1
34    15    33    1
35    15    34    1
36    15    35    1
37    16    36    1
38    16    37    1
39    16    38    1
40    39    40    1
@<TRIPOS>SUBSTRUCTURE
1   LIG    1    
 
########## Number      : 868
########## Name        : ZINC00020238
########## Description : AM1BCC_CHARGES =   0.9999 ORIGINAL_CHARGES =   1.0000

@<TRIPOS>MOLECULE
ZINC00020238
45    49    1     0     0    
SMALL
USER_CHARGES
****
****
@<TRIPOS>ATOM
1     C1       6.3336   -0.8807    3.0348 C.3     1  LIG   0.0827   0.5030 
2     C2       5.6718    0.8886    4.6411 C.3     1  LIG   0.1151   0.5030 
3     C3       4.5323    1.6447    5.2989 C.3     1  LIG  -0.0895   0.0000 
4     C4       3.1544    0.9261    5.3183 C.3     1  LIG  -0.0767   0.1435 
5     C5       2.3180    1.4701    4.2433 C.ar    1  LIG  -0.1520  -0.1435 
6     C6       2.2139    0.9815    2.9636 C.ar    1  LIG  -0.1116  -0.1435 
7     C7       1.3599    1.6971    2.1339 C.ar    1  LIG  -0.0865  -0.1500 
8     C8       0.6539    2.8338    2.6275 C.ar    1  LIG  -0.1678  -0.1500 
9     C9       0.7460    3.2542    3.9734 C.ar    1  LIG   0.1593   0.0825 
10    C10      1.5802    2.5218    4.7840 C.ar    1  LIG   0.0846   0.0825 
11    O1       1.7819    2.6143    6.1719 O.3     1  LIG  -0.2496  -0.3625 
12    C11      2.2077    1.2599    6.4421 C.3     1  LIG   0.0413   0.3410 
13    C12      2.9632    0.9941    7.7176 C.2     1  LIG   0.5679   0.4480 
14    O2       3.0604    1.8016    8.6345 O.2     1  LIG  -0.4461  -0.5700 
15    C13      3.5244   -0.4487    7.8056 C.3     1  LIG  -0.1991   0.0610 
16    C14      4.0943   -1.0614    6.4746 C.3     1  LIG  -0.1016   0.0000 
17    C15      3.3384   -0.5875    5.2047 C.3     1  LIG   0.1707   0.2800 
18    C16      3.9545   -0.7846    3.7669 C.3     1  LIG   0.1501   0.5030 
19    C17      2.9087   -0.3255    2.6475 C.3     1  LIG  -0.0365   0.1435 
20    O3       2.0765   -1.2772    5.1924 O.3     1  LIG  -0.5765  -0.6800 
21    O4       0.0717    4.2864    4.5516 O.3     1  LIG  -0.2941  -0.3625 
22    C18     -0.7847    5.0419    3.7037 C.3     1  LIG   0.1053   0.2800 
23    H1       1.7814   -1.4534    6.1008 H       1  LIG   0.4319   0.4000 
24    H2       7.2072   -0.2655    2.8031 H       1  LIG   0.1031   0.0000 
25    H3       6.5567   -1.5945    3.8325 H       1  LIG   0.1027   0.0000 
26    H4       5.9865   -1.3895    2.1315 H       1  LIG   0.1038   0.0000 
27    H5       6.2415    0.2737    5.3404 H       1  LIG   0.0964   0.0000 
28    H6       6.3918    1.6070    4.2289 H       1  LIG   0.1002   0.0000 
29    H7       4.8622    1.8865    6.3165 H       1  LIG   0.0984   0.0000 
30    H8       4.4470    2.6238    4.8057 H       1  LIG   0.1022   0.0000 
31    H9       1.2035    1.3846    1.1045 H       1  LIG   0.1503   0.1500 
32    H10      0.0037    3.3501    1.9251 H       1  LIG   0.1596   0.1500 
33    H11      1.2952    0.6283    6.4578 H       1  LIG   0.0885   0.0000 
34    H12      4.3090   -0.4686    8.5699 H       1  LIG   0.1015   0.0000 
35    H13      2.7009   -1.0786    8.1624 H       1  LIG   0.0829   0.0000 
36    H14      5.1613   -0.8556    6.4497 H       1  LIG   0.0508   0.0000 
37    H15      4.0189   -2.1539    6.5551 H       1  LIG   0.0829   0.0000 
38    H16      4.1576   -1.8564    3.5960 H       1  LIG   0.1142   0.0000 
39    H17      2.1360   -1.1003    2.5655 H       1  LIG   0.1256   0.0000 
40    H18      3.4043   -0.2588    1.6716 H       1  LIG   0.0633   0.0000 
41    H19     -1.2361    5.8357    4.3066 H       1  LIG   0.0908   0.0000 
42    H20     -0.2205    5.5181    2.8949 H       1  LIG   0.0420   0.0000 
43    H21     -1.5960    4.4215    3.3089 H       1  LIG   0.0442   0.0000 
44    N1       5.2283    0.0405    3.5051 N.4     1  LIG  -0.6820  -0.9590 
45    H22      5.0730    0.6724    2.6983 H       1  LIG   0.4572   0.4500 
@<TRIPOS>BOND
1     1     24    1
2     1     25    1
3     1     26    1
4     1     44    1
5     2     3     1
6     2     27    1
7     2     28    1
8     2     44    1
9     3     4     1
10    3     29    1
11    3     30    1
12    4     12    1
13    4     17    1
14    4     5     1
15    5     10    ar
16    5     6     ar
17    6     19    1
18    6     7     ar
19    7     8     ar
20    7     31    1
21    8     9     ar
22    8     32    1
23    9     10    ar
24    9     21    1
25    10    11    1
26    11    12    1
27    12    13    1
28    12    33    1
29    13    14    2
30    13    15    1
31    15    16    1
32    15    34    1
33    15    35    1
34    16    17    1
35    16    36    1
36    16    37    1
37    17    18    1
38    17    20    1
39    18    19    1
40    18    38    1
41    18    44    1
42    19    39    1
43    19    40    1
44    20    23    1
45    21    22    1
46    22    41    1
47    22    42    1
48    22    43    1
49    44    45    1
@<TRIPOS>SUBSTRUCTURE
1   LIG    1    
 
########## Number      : 869
########## Name        : ZINC00020241
########## Description : AM1BCC_CHARGES =  -1.0000 ORIGINAL_CHARGES =  -1.0000

@<TRIPOS>MOLECULE
ZINC00020241
32    33    1     0     0    
SMALL
USER_CHARGES
****
****
@<TRIPOS>ATOM
1     C1       6.1682   -8.5942    0.5034 C.3     1  LIG  -0.0448   0.1435 
2     C2       5.2895   -7.4241    0.1519 C.ar    1  LIG  -0.0532  -0.1435 
3     C3       4.8176   -7.3185   -1.1644 C.ar    1  LIG  -0.1975  -0.1500 
4     C4       4.0088   -6.2545   -1.5450 C.ar    1  LIG  -0.1028  -0.1500 
5     C5       3.6625   -5.2773   -0.6158 C.ar    1  LIG  -0.2067  -0.1500 
6     C6       4.1117   -5.3445    0.7132 C.ar    1  LIG   0.2049   0.1000 
7     C7       4.9143   -6.4493    1.1089 C.ar    1  LIG  -0.1368  -0.1435 
8     C8       5.3959   -6.5512    2.5379 C.3     1  LIG  -0.0517   0.1435 
9     N1       3.7524   -4.3565    1.6573 N.pl3   1  LIG  -0.6447  -0.6000 
10    C9       2.6322   -3.5022    1.7741 C.ar    1  LIG   0.1763   0.1000 
11    C10      1.4006   -3.8264    1.1752 C.ar    1  LIG  -0.2041  -0.1500 
12    C11      0.3050   -2.9653    1.2497 C.ar    1  LIG  -0.1284  -0.1500 
13    C12      0.4182   -1.7572    1.9235 C.ar    1  LIG  -0.1904  -0.1500 
14    C13      1.6252   -1.4135    2.5287 C.ar    1  LIG  -0.0836  -0.1500 
15    C14      2.7420   -2.2707    2.4691 C.ar    1  LIG  -0.1658  -0.1790 
16    C15      4.0195   -1.8350    3.1532 C.2     1  LIG   0.9129   0.9790 
17    O1       4.7914   -2.7470    3.5877 O.co2   1  LIG  -0.8501  -0.9000 
18    H1       4.4508   -4.1956    2.3808 H       1  LIG   0.4957   0.4000 
19    H2       6.4656   -9.1567   -0.3883 H       1  LIG   0.0257   0.0000 
20    H3       7.0890   -8.2515    0.9864 H       1  LIG   0.0393   0.0000 
21    H4       5.6353   -9.2815    1.1679 H       1  LIG   0.0351   0.0000 
22    H5       5.0844   -8.0663   -1.9075 H       1  LIG   0.1120   0.1500 
23    H6       3.6572   -6.1778   -2.5698 H       1  LIG   0.1125   0.1500 
24    H7       3.0621   -4.4381   -0.9575 H       1  LIG   0.1428   0.1500 
25    H8       6.2531   -5.8877    2.6891 H       1  LIG   0.0577   0.0000 
26    H9       4.5998   -6.2807    3.2398 H       1  LIG   0.0523   0.0000 
27    H10      5.6929   -7.5679    2.8087 H       1  LIG   0.0222   0.0000 
28    H11      1.2671   -4.7740    0.6596 H       1  LIG   0.1222   0.1500 
29    H12     -0.6358   -3.2431    0.7834 H       1  LIG   0.1032   0.1500 
30    H13     -0.4316   -1.0838    1.9842 H       1  LIG   0.1072   0.1500 
31    H14      1.6877   -0.4652    3.0587 H       1  LIG   0.1511   0.1500 
32    O2       4.2245   -0.5845    3.2510 O.co2   1  LIG  -0.8125  -0.9000 
@<TRIPOS>BOND
1     1     2     1
2     1     19    1
3     1     20    1
4     1     21    1
5     2     7     ar
6     2     3     ar
7     3     4     ar
8     3     22    1
9     4     5     ar
10    4     23    1
11    5     6     ar
12    5     24    1
13    6     7     ar
14    6     9     1
15    7     8     1
16    8     25    1
17    8     26    1
18    8     27    1
19    9     10    1
20    9     18    1
21    10    15    ar
22    10    11    ar
23    11    12    ar
24    11    28    1
25    12    13    ar
26    12    29    1
27    13    14    ar
28    13    30    1
29    14    15    ar
30    14    31    1
31    15    16    1
32    16    17    2
33    16    32    1
@<TRIPOS>SUBSTRUCTURE
1   LIG    1    
 
########## Number      : 870
########## Name        : ZINC00020244
########## Description : AM1BCC_CHARGES =   0.9998 ORIGINAL_CHARGES =   1.0000

@<TRIPOS>MOLECULE
ZINC00020244
41    42    1     0     0    
SMALL
USER_CHARGES
****
****
@<TRIPOS>ATOM
1     C1       6.0820  -10.7638    1.6857 C.3     1  LIG   0.0835   0.5030 
2     C2       6.3704   -9.5914   -0.4816 C.3     1  LIG   0.0809   0.5030 
3     C3       5.2009   -8.4473    1.4399 C.3     1  LIG   0.0900   0.5030 
4     C4       5.5733   -7.0192    1.0647 C.3     1  LIG   0.1155   0.2800 
5     O1       4.6062   -6.1480    1.6547 O.3     1  LIG  -0.4130  -0.5600 
6     C5       4.8932   -4.7560    1.4435 C.3     1  LIG   0.2493   0.5670 
7     C6       3.5884   -3.9775    1.4036 C.ar    1  LIG  -0.1017  -0.1435 
8     C7       2.5121   -4.2964    2.2465 C.ar    1  LIG  -0.1007  -0.1500 
9     C8       1.3311   -3.5526    2.2060 C.ar    1  LIG  -0.1280  -0.1500 
10    C9       1.2118   -2.4779    1.3277 C.ar    1  LIG  -0.1089  -0.1500 
11    C10      2.2739   -2.1441    0.4907 C.ar    1  LIG  -0.1231  -0.1500 
12    C11      3.4556   -2.8865    0.5296 C.ar    1  LIG  -0.1139  -0.1500 
13    C12      5.8401   -4.2272    2.5069 C.ar    1  LIG  -0.1402  -0.1435 
14    C13      5.7276   -4.6174    3.8505 C.ar    1  LIG  -0.1132  -0.1500 
15    C14      6.5995   -4.1077    4.8143 C.ar    1  LIG  -0.1304  -0.1500 
16    C15      7.5903   -3.1991    4.4492 C.ar    1  LIG  -0.1103  -0.1500 
17    C16      7.7092   -2.7972    3.1207 C.ar    1  LIG  -0.1243  -0.1500 
18    C17      6.8385   -3.3056    2.1551 C.ar    1  LIG  -0.1169  -0.1500 
19    H1       6.1047  -10.6045    2.7670 H       1  LIG   0.1074   0.0000 
20    H2       5.1230  -11.1826    1.3692 H       1  LIG   0.1089   0.0000 
21    H3       6.9112  -11.4125    1.3912 H       1  LIG   0.1055   0.0000 
22    H4       6.6589   -8.6324   -0.9166 H       1  LIG   0.1074   0.0000 
23    H5       7.1481  -10.3310   -0.6907 H       1  LIG   0.1041   0.0000 
24    H6       5.4021   -9.9250   -0.8637 H       1  LIG   0.1088   0.0000 
25    H7       4.2498   -8.7538    0.9897 H       1  LIG   0.1202   0.0000 
26    H8       5.0997   -8.5272    2.5288 H       1  LIG   0.1172   0.0000 
27    H9       6.5728   -6.7739    1.4409 H       1  LIG   0.0574   0.0000 
28    H10      5.5544   -6.8840   -0.0215 H       1  LIG   0.0451   0.0000 
29    H11      5.3651   -4.6617    0.4553 H       1  LIG   0.0536   0.0000 
30    H12      2.5838   -5.1269    2.9444 H       1  LIG   0.1319   0.1500 
31    H13      0.5050   -3.8113    2.8623 H       1  LIG   0.1406   0.1500 
32    H14      0.2931   -1.8994    1.2978 H       1  LIG   0.1443   0.1500 
33    H15      2.1838   -1.3036   -0.1917 H       1  LIG   0.1438   0.1500 
34    H16      4.2746   -2.6056   -0.1283 H       1  LIG   0.1320   0.1500 
35    H17      4.9588   -5.3219    4.1581 H       1  LIG   0.1346   0.1500 
36    H18      6.5033   -4.4184    5.8508 H       1  LIG   0.1414   0.1500 
37    H19      8.2673   -2.8020    5.2001 H       1  LIG   0.1457   0.1500 
38    H20      8.4789   -2.0855    2.8358 H       1  LIG   0.1454   0.1500 
39    H21      6.9449   -2.9757    1.1245 H       1  LIG   0.1345   0.1500 
40    N1       6.2685   -9.4290    1.0114 N.4     1  LIG  -0.6760  -0.9590 
41    H22      7.1734   -9.0651    1.3399 H       1  LIG   0.4514   0.4500 
@<TRIPOS>BOND
1     1     19    1
2     1     20    1
3     1     21    1
4     1     40    1
5     2     22    1
6     2     23    1
7     2     24    1
8     2     40    1
9     3     4     1
10    3     25    1
11    3     26    1
12    3     40    1
13    4     5     1
14    4     27    1
15    4     28    1
16    5     6     1
17    6     7     1
18    6     13    1
19    6     29    1
20    7     12    ar
21    7     8     ar
22    8     9     ar
23    8     30    1
24    9     10    ar
25    9     31    1
26    10    11    ar
27    10    32    1
28    11    12    ar
29    11    33    1
30    12    34    1
31    13    18    ar
32    13    14    ar
33    14    15    ar
34    14    35    1
35    15    16    ar
36    15    36    1
37    16    17    ar
38    16    37    1
39    17    18    ar
40    17    38    1
41    18    39    1
42    40    41    1
@<TRIPOS>SUBSTRUCTURE
1   LIG    1    
 
########## Number      : 871
########## Name        : ZINC00020245
########## Description : AM1BCC_CHARGES =   0.9999 ORIGINAL_CHARGES =   1.0000

@<TRIPOS>MOLECULE
ZINC00020245
46    48    1     0     0    
SMALL
USER_CHARGES
****
****
@<TRIPOS>ATOM
1     C1       6.5073  -10.9654    1.1296 C.3     1  LIG   0.0818   0.5030 
2     C2       7.6269   -8.8624    0.4393 C.3     1  LIG   0.0805   0.5030 
3     C3       5.3716   -8.7911    1.5793 C.3     1  LIG   0.1098   0.5030 
4     C4       5.5475   -7.4410    2.2702 C.3     1  LIG  -0.1353   0.0000 
5     C5       4.1818   -6.7813    2.5303 C.3     1  LIG   0.2464   0.3691 
6     N1       4.3211   -5.4113    3.0760 N.pl3   1  LIG  -0.5925  -0.5691 
7     C6       5.1075   -5.2806    4.2444 C.ar    1  LIG   0.1294   0.1000 
8     C7       4.8812   -6.0973    5.3681 C.ar    1  LIG  -0.1632  -0.1500 
9     C8       5.6631   -5.9767    6.5182 C.ar    1  LIG  -0.1198  -0.1500 
10    C9       6.6872   -5.0379    6.5662 C.ar    1  LIG  -0.1289  -0.1500 
11    C10      6.9281   -4.2192    5.4654 C.ar    1  LIG  -0.1143  -0.1500 
12    C11      6.1450   -4.3346    4.3063 C.ar    1  LIG  -0.0842  -0.1435 
13    C12      6.4199   -3.4579    3.1169 C.3     1  LIG  -0.0249   0.1435 
14    C13      5.2784   -2.4733    2.9028 C.3     1  LIG  -0.0303   0.1435 
15    C14      3.9467   -3.0258    2.4331 C.ar    1  LIG  -0.0842  -0.1435 
16    C15      3.5355   -4.3788    2.5010 C.ar    1  LIG   0.1598   0.1000 
17    C16      2.2376   -4.6830    2.0175 C.ar    1  LIG  -0.1773  -0.1500 
18    C17      1.3891   -3.7145    1.4771 C.ar    1  LIG  -0.1070  -0.1500 
19    C18      1.8047   -2.3969    1.4145 C.ar    1  LIG  -0.1336  -0.1500 
20    C19      3.0654   -2.0576    1.8940 C.ar    1  LIG  -0.1129  -0.1500 
21    H1       5.9084  -11.4061    1.9310 H       1  LIG   0.1056   0.0000 
22    H2       5.9995  -11.0517    0.1652 H       1  LIG   0.1066   0.0000 
23    H3       7.4911  -11.4413    1.1006 H       1  LIG   0.1057   0.0000 
24    H4       7.8720   -7.8565    0.7855 H       1  LIG   0.1106   0.0000 
25    H5       8.5419   -9.4593    0.3913 H       1  LIG   0.1036   0.0000 
26    H6       7.1269   -8.8370   -0.5324 H       1  LIG   0.1059   0.0000 
27    H7       4.9398   -8.6923    0.5774 H       1  LIG   0.1046   0.0000 
28    H8       4.7273   -9.4373    2.1860 H       1  LIG   0.1016   0.0000 
29    H9       6.0932   -7.5852    3.2093 H       1  LIG   0.0763   0.0000 
30    H10      6.1502   -6.7689    1.6489 H       1  LIG   0.0786   0.0000 
31    H11      3.6714   -6.7622    1.5591 H       1  LIG   0.0664   0.0000 
32    H12      3.5674   -7.4008    3.1948 H       1  LIG   0.0291   0.0000 
33    H13      4.0771   -6.8289    5.3658 H       1  LIG   0.1322   0.1500 
34    H14      5.4682   -6.6136    7.3762 H       1  LIG   0.1410   0.1500 
35    H15      7.2965   -4.9412    7.4601 H       1  LIG   0.1451   0.1500 
36    H16      7.7320   -3.4889    5.5164 H       1  LIG   0.1436   0.1500 
37    H17      7.3475   -2.8944    3.2786 H       1  LIG   0.0536   0.0000 
38    H18      6.5919   -4.0751    2.2262 H       1  LIG   0.0467   0.0000 
39    H19      5.0996   -1.9067    3.8269 H       1  LIG   0.0649   0.0000 
40    H20      5.6252   -1.7529    2.1492 H       1  LIG   0.0557   0.0000 
41    H21      1.8419   -5.6943    2.0894 H       1  LIG   0.1249   0.1500 
42    H22      0.4013   -3.9939    1.1226 H       1  LIG   0.1403   0.1500 
43    H23      1.1514   -1.6331    1.0041 H       1  LIG   0.1453   0.1500 
44    H24      3.3717   -1.0136    1.8452 H       1  LIG   0.1406   0.1500 
45    N2       6.7021   -9.5035    1.4398 N.4     1  LIG  -0.6804  -0.9590 
46    H25      7.1716   -9.4633    2.3547 H       1  LIG   0.4525   0.4500 
@<TRIPOS>BOND
1     1     21    1
2     1     22    1
3     1     23    1
4     1     45    1
5     2     24    1
6     2     25    1
7     2     26    1
8     2     45    1
9     3     4     1
10    3     27    1
11    3     28    1
12    3     45    1
13    4     5     1
14    4     29    1
15    4     30    1
16    5     6     1
17    5     31    1
18    5     32    1
19    6     16    1
20    6     7     1
21    7     12    ar
22    7     8     ar
23    8     9     ar
24    8     33    1
25    9     10    ar
26    9     34    1
27    10    11    ar
28    10    35    1
29    11    12    ar
30    11    36    1
31    12    13    1
32    13    14    1
33    13    37    1
34    13    38    1
35    14    15    1
36    14    39    1
37    14    40    1
38    15    20    ar
39    15    16    ar
40    16    17    ar
41    17    18    ar
42    17    41    1
43    18    19    ar
44    18    42    1
45    19    20    ar
46    19    43    1
47    20    44    1
48    45    46    1
@<TRIPOS>SUBSTRUCTURE
1   LIG    1    
 
########## Number      : 872
########## Name        : ZINC00020248
########## Description : AM1BCC_CHARGES =   1.0000 ORIGINAL_CHARGES =   1.0000

@<TRIPOS>MOLECULE
ZINC00020248
46    48    1     0     0    
SMALL
USER_CHARGES
****
****
@<TRIPOS>ATOM
1     C1       4.2628  -11.5443   -0.1006 C.3     1  LIG   0.0819   0.5030 
2     C2       2.7312  -10.6324    1.6243 C.3     1  LIG   0.0803   0.5030 
3     C3       5.0623   -9.6896    1.3625 C.3     1  LIG   0.1091   0.5030 
4     C4       4.7458   -8.2654    1.8124 C.3     1  LIG  -0.1328   0.0000 
5     C5       6.0025   -7.5828    2.3805 C.3     1  LIG   0.2408   0.3691 
6     N1       5.7019   -6.2487    2.9501 N.pl3   1  LIG  -0.5857  -0.5691 
7     C6       5.0485   -5.3348    2.0909 C.ar    1  LIG   0.1240   0.1000 
8     C7       5.5402   -5.0731    0.7984 C.ar    1  LIG  -0.1631  -0.1500 
9     C8       4.8905   -4.1789   -0.0541 C.ar    1  LIG  -0.1191  -0.1500 
10    C9       3.7359   -3.5305    0.3690 C.ar    1  LIG  -0.1270  -0.1500 
11    C10      3.2323   -3.7749    1.6444 C.ar    1  LIG  -0.1137  -0.1500 
12    C11      3.8813   -4.6720    2.5070 C.ar    1  LIG  -0.0822  -0.1435 
13    C12      3.3246   -4.9425    3.8766 C.3     1  LIG  -0.0254   0.1435 
14    C13      4.2505   -4.3867    4.9499 C.3     1  LIG  -0.0307   0.1435 
15    C14      5.5935   -5.0633    5.1469 C.ar    1  LIG  -0.0830  -0.1435 
16    C15      6.2324   -5.9305    4.2275 C.ar    1  LIG   0.1683   0.1000 
17    C16      7.4993   -6.4481    4.5993 C.ar    1  LIG  -0.1789  -0.1500 
18    C17      8.0985   -6.1423    5.8231 C.ar    1  LIG   0.0364   0.1770 
19    C18      7.4658   -5.2973    6.7173 C.ar    1  LIG  -0.1286  -0.1500 
20    C19      6.2298   -4.7593    6.3750 C.ar    1  LIG  -0.1057  -0.1500 
21    Cl1      9.6397   -6.8042    6.2126 Cl      1  LIG  -0.0773  -0.1770 
22    H1       5.0186  -11.2481   -0.8328 H       1  LIG   0.1058   0.0000 
23    H2       4.6589  -12.2883    0.5957 H       1  LIG   0.1071   0.0000 
24    H3       3.3767  -11.9215   -0.6180 H       1  LIG   0.1059   0.0000 
25    H4       2.3637   -9.6969    2.0504 H       1  LIG   0.1101   0.0000 
26    H5       1.9305  -11.1045    1.0484 H       1  LIG   0.1038   0.0000 
27    H6       3.1001  -11.3053    2.4028 H       1  LIG   0.1064   0.0000 
28    H7       5.3486  -10.3360    2.1994 H       1  LIG   0.1055   0.0000 
29    H8       5.8738   -9.6746    0.6264 H       1  LIG   0.1021   0.0000 
30    H9       4.3479   -7.6992    0.9629 H       1  LIG   0.0764   0.0000 
31    H10      3.9691   -8.2720    2.5855 H       1  LIG   0.0791   0.0000 
32    H11      6.3826   -8.2589    3.1568 H       1  LIG   0.0678   0.0000 
33    H12      6.7870   -7.5088    1.6177 H       1  LIG   0.0316   0.0000 
34    H13      6.4499   -5.5529    0.4462 H       1  LIG   0.1324   0.1500 
35    H14      5.2897   -3.9873   -1.0460 H       1  LIG   0.1419   0.1500 
36    H15      3.2289   -2.8335   -0.2919 H       1  LIG   0.1461   0.1500 
37    H16      2.3287   -3.2608    1.9627 H       1  LIG   0.1444   0.1500 
38    H17      2.3408   -4.4672    3.9772 H       1  LIG   0.0552   0.0000 
39    H18      3.1558   -6.0187    4.0083 H       1  LIG   0.0488   0.0000 
40    H19      4.4366   -3.3205    4.7622 H       1  LIG   0.0664   0.0000 
41    H20      3.7017   -4.4523    5.8995 H       1  LIG   0.0575   0.0000 
42    H21      8.0560   -7.0764    3.9063 H       1  LIG   0.1394   0.1500 
43    H22      7.9189   -5.0423    7.6708 H       1  LIG   0.1600   0.1500 
44    H23      5.7464   -4.0875    7.0831 H       1  LIG   0.1464   0.1500 
45    N2       3.8634  -10.3199    0.6822 N.4     1  LIG  -0.6801  -0.9590 
46    H24      3.5066   -9.6423   -0.0053 H       1  LIG   0.4524   0.4500 
@<TRIPOS>BOND
1     1     22    1
2     1     23    1
3     1     24    1
4     1     45    1
5     2     25    1
6     2     26    1
7     2     27    1
8     2     45    1
9     3     4     1
10    3     28    1
11    3     29    1
12    3     45    1
13    4     5     1
14    4     30    1
15    4     31    1
16    5     6     1
17    5     32    1
18    5     33    1
19    6     16    1
20    6     7     1
21    7     12    ar
22    7     8     ar
23    8     9     ar
24    8     34    1
25    9     10    ar
26    9     35    1
27    10    11    ar
28    10    36    1
29    11    12    ar
30    11    37    1
31    12    13    1
32    13    14    1
33    13    38    1
34    13    39    1
35    14    15    1
36    14    40    1
37    14    41    1
38    15    20    ar
39    15    16    ar
40    16    17    ar
41    17    18    ar
42    17    42    1
43    18    19    ar
44    18    21    1
45    19    20    ar
46    19    43    1
47    20    44    1
48    45    46    1
@<TRIPOS>SUBSTRUCTURE
1   LIG    1    
 
########## Number      : 873
########## Name        : ZINC00020252
########## Description : AM1BCC_CHARGES =   1.0001 ORIGINAL_CHARGES =   1.0000

@<TRIPOS>MOLECULE
ZINC00020252
44    45    1     0     0    
SMALL
USER_CHARGES
****
****
@<TRIPOS>ATOM
1     C1       2.2062   -8.0041   -2.6437 C.3     1  LIG  -0.1367   0.0000 
2     C2       2.0794   -6.5169   -2.9848 C.3     1  LIG   0.1300   0.5030 
3     C3       1.5123   -6.3527   -4.4086 C.3     1  LIG  -0.0475   0.1435 
4     C4       1.1877   -4.9278   -4.7842 C.ar    1  LIG  -0.1894  -0.1435 
5     C5       0.0702   -4.2850   -4.2309 C.ar    1  LIG  -0.0746  -0.1500 
6     C6      -0.2143   -2.9564   -4.5505 C.ar    1  LIG  -0.2068  -0.1500 
7     C7       0.6204   -2.2680   -5.4270 C.ar    1  LIG   0.1518   0.0825 
8     C8       1.7293   -2.8910   -5.9911 C.ar    1  LIG  -0.1535  -0.1500 
9     C9       2.0107   -4.2199   -5.6723 C.ar    1  LIG  -0.0966  -0.1500 
10    O1       0.3756   -0.9651   -5.7569 O.3     1  LIG  -0.4825  -0.5325 
11    C10      3.4854   -4.5486   -2.2374 C.3     1  LIG   0.0966   0.5030 
12    C11      4.8962   -3.9686   -2.3552 C.3     1  LIG   0.1850   0.4235 
13    C12      4.9688   -2.6289   -1.6469 C.ar    1  LIG  -0.0968  -0.1435 
14    C13      4.3720   -1.4818   -2.1971 C.ar    1  LIG  -0.2536  -0.1500 
15    C14      4.4356   -0.2643   -1.5178 C.ar    1  LIG   0.1827   0.0825 
16    C15      5.0823   -0.1622   -0.2904 C.ar    1  LIG  -0.2202  -0.1500 
17    C16      5.6693   -1.2993    0.2571 C.ar    1  LIG   0.1756   0.0825 
18    C17      5.6165   -2.5252   -0.4066 C.ar    1  LIG  -0.1715  -0.1500 
19    O2       6.3127   -1.2488    1.4619 O.3     1  LIG  -0.4812  -0.5325 
20    O3       3.8625    0.8617   -2.0390 O.3     1  LIG  -0.4766  -0.5325 
21    O4       5.2048   -3.7775   -3.7293 O.3     1  LIG  -0.6352  -0.6800 
22    H1      -0.4344   -0.6766   -5.3027 H       1  LIG   0.4369   0.4500 
23    H2       6.2710   -0.3370    1.7978 H       1  LIG   0.4398   0.4500 
24    H3       3.4623    0.6390   -2.8969 H       1  LIG   0.4311   0.4500 
25    H4       5.7793   -4.5104   -4.0094 H       1  LIG   0.4557   0.4000 
26    H5       1.2289   -8.4963   -2.6886 H       1  LIG   0.0974   0.0000 
27    H6       2.8772   -8.5189   -3.3402 H       1  LIG   0.0693   0.0000 
28    H7       2.6002   -8.1390   -1.6305 H       1  LIG   0.0645   0.0000 
29    H8       1.4100   -6.0670   -2.2336 H       1  LIG   0.1072   0.0000 
30    H9       2.2040   -6.7839   -5.1449 H       1  LIG   0.0725   0.0000 
31    H10      0.5880   -6.9388   -4.5033 H       1  LIG   0.1001   0.0000 
32    H11     -0.5837   -4.8154   -3.5427 H       1  LIG   0.1406   0.1500 
33    H12     -1.0821   -2.4742   -4.1100 H       1  LIG   0.1547   0.1500 
34    H13      2.3766   -2.3501   -6.6757 H       1  LIG   0.1682   0.1500 
35    H14      2.8824   -4.6949   -6.1156 H       1  LIG   0.1342   0.1500 
36    H15      2.7489   -3.9149   -2.7373 H       1  LIG   0.1232   0.0000 
37    H16      3.1904   -4.6991   -1.1932 H       1  LIG   0.1087   0.0000 
38    H17      5.6345   -4.6434   -1.8930 H       1  LIG   0.0690   0.0000 
39    H18      3.8593   -1.5427   -3.1542 H       1  LIG   0.1427   0.1500 
40    H19      5.1231    0.7919    0.2264 H       1  LIG   0.1732   0.1500 
41    H20      6.0809   -3.3976    0.0469 H       1  LIG   0.1595   0.1500 
42    N1       3.4417   -5.8940   -2.9060 N.4     1  LIG  -0.7582  -0.9060 
43    H21      4.0800   -6.5193   -2.3945 H       1  LIG   0.4428   0.4500 
44    H22      3.8438   -5.8126   -3.8502 H       1  LIG   0.4680   0.4500 
@<TRIPOS>BOND
1     1     2     1
2     1     26    1
3     1     27    1
4     1     28    1
5     2     3     1
6     2     29    1
7     2     42    1
8     3     4     1
9     3     30    1
10    3     31    1
11    4     9     ar
12    4     5     ar
13    5     6     ar
14    5     32    1
15    6     7     ar
16    6     33    1
17    7     8     ar
18    7     10    1
19    8     9     ar
20    8     34    1
21    9     35    1
22    10    22    1
23    11    12    1
24    11    36    1
25    11    37    1
26    11    42    1
27    12    13    1
28    12    21    1
29    12    38    1
30    13    18    ar
31    13    14    ar
32    14    15    ar
33    14    39    1
34    15    16    ar
35    15    20    1
36    16    17    ar
37    16    40    1
38    17    18    ar
39    17    19    1
40    18    41    1
41    19    23    1
42    20    24    1
43    21    25    1
44    42    43    1
45    42    44    1
@<TRIPOS>SUBSTRUCTURE
1   LIG    1    
 
########## Number      : 874
########## Name        : ZINC00020258
########## Description : AM1BCC_CHARGES =  -0.0003 ORIGINAL_CHARGES =   0.0000

@<TRIPOS>MOLECULE
ZINC00020258
37    40    1     0     0    
SMALL
USER_CHARGES
****
****
@<TRIPOS>ATOM
1     C1       6.1396  -12.7295    0.1037 C.ar    1  LIG  -0.1520  -0.1500 
2     C2       7.0403  -12.0889   -0.7450 C.ar    1  LIG  -0.0786  -0.1500 
3     C3       7.0893  -10.6996   -0.7750 C.ar    1  LIG  -0.1449  -0.1500 
4     C4       6.2369   -9.9701    0.0556 C.ar    1  LIG   0.1615   0.0825 
5     C5       5.3406  -10.5814    0.9286 C.ar    1  LIG  -0.1813   0.0284 
6     C6       5.2932  -11.9823    0.9320 C.ar    1  LIG  -0.0764  -0.1500 
7     C7       4.5064   -9.7178    1.7706 C.2     1  LIG   0.2437   0.0483 
8     C8       4.5596   -8.3780    1.6701 C.2     1  LIG  -0.2537  -0.1238 
9     C9       5.4391   -7.7405    0.6543 C.2     1  LIG   0.7437   0.7056 
10    O1       5.4188   -6.5322    0.4441 O.2     1  LIG  -0.6065  -0.5700 
11    O2       6.3007   -8.5694   -0.0494 O.3     1  LIG  -0.3155  -0.2325 
12    C10      3.7164   -7.4444    2.5175 C.3     1  LIG   0.0495   0.2764 
13    C11      4.5097   -6.7095    3.5854 C.2     1  LIG  -0.3312  -0.1238 
14    C12      4.8913   -5.4194    3.4995 C.2     1  LIG   0.2712   0.0483 
15    C13      5.5895   -4.7560    4.6012 C.ar    1  LIG  -0.1593   0.0284 
16    C14      5.9989   -3.4163    4.5638 C.ar    1  LIG  -0.0479  -0.1500 
17    C15      6.6690   -2.8454    5.6511 C.ar    1  LIG  -0.1681  -0.1500 
18    C16      6.9387   -3.6058    6.7882 C.ar    1  LIG  -0.0764  -0.1500 
19    C17      6.5384   -4.9375    6.8400 C.ar    1  LIG  -0.1572  -0.1500 
20    C18      5.8706   -5.4901    5.7465 C.ar    1  LIG   0.1621   0.0825 
21    O3       5.4830   -6.8356    5.8465 O.3     1  LIG  -0.3275  -0.2325 
22    C19      4.7922   -7.4836    4.8309 C.2     1  LIG   0.7483   0.7056 
23    O4       4.4352   -8.6484    4.9722 O.2     1  LIG  -0.5887  -0.5700 
24    O5       4.6737   -4.6195    2.3973 O.3     1  LIG  -0.4866  -0.5267 
25    O6       3.6685  -10.3221    2.6876 O.3     1  LIG  -0.4749  -0.5267 
26    H1       4.4745   -5.1802    1.6285 H       1  LIG   0.4654   0.4500 
27    H2       4.0703  -11.1543    2.9845 H       1  LIG   0.4405   0.4500 
28    H3       6.0914  -13.8150    0.1212 H       1  LIG   0.1444   0.1500 
29    H4       7.6941  -12.6724   -1.3864 H       1  LIG   0.1452   0.1500 
30    H5       7.7781  -10.1929   -1.4444 H       1  LIG   0.1639   0.1500 
31    H6       4.5990  -12.5274    1.5655 H       1  LIG   0.1380   0.1500 
32    H7       3.1915   -6.7414    1.8588 H       1  LIG   0.0547   0.0000 
33    H8       2.8957   -7.9884    3.0034 H       1  LIG   0.0945   0.0000 
34    H9       5.8054   -2.7960    3.6919 H       1  LIG   0.1584   0.1500 
35    H10      6.9806   -1.8053    5.6082 H       1  LIG   0.1416   0.1500 
36    H11      7.4592   -3.1597    7.6305 H       1  LIG   0.1404   0.1500 
37    H12      6.7447   -5.5349    7.7230 H       1  LIG   0.1594   0.1500 
@<TRIPOS>BOND
1     1     6     ar
2     1     2     ar
3     1     28    1
4     2     3     ar
5     2     29    1
6     3     4     ar
7     3     30    1
8     4     11    1
9     4     5     ar
10    5     6     ar
11    5     7     1
12    6     31    1
13    7     8     2
14    7     25    1
15    8     9     1
16    8     12    1
17    9     10    2
18    9     11    1
19    12    13    1
20    12    32    1
21    12    33    1
22    13    22    1
23    13    14    2
24    14    15    1
25    14    24    1
26    15    20    ar
27    15    16    ar
28    16    17    ar
29    16    34    1
30    17    18    ar
31    17    35    1
32    18    19    ar
33    18    36    1
34    19    20    ar
35    19    37    1
36    20    21    1
37    21    22    1
38    22    23    2
39    24    26    1
40    25    27    1
@<TRIPOS>SUBSTRUCTURE
1   LIG    1    
 
########## Number      : 875
########## Name        : ZINC00020259
########## Description : AM1BCC_CHARGES =   1.0000 ORIGINAL_CHARGES =   1.0000

@<TRIPOS>MOLECULE
ZINC00020259
28    28    1     0     0    
SMALL
USER_CHARGES
****
****
@<TRIPOS>ATOM
1     C1       0.7991   -4.6117   -0.1759 C.3     1  LIG  -0.1354   0.0000 
2     C2       1.6501   -5.8645    0.0612 C.3     1  LIG   0.1288   0.5030 
3     C3       2.2206   -6.4051   -1.2737 C.3     1  LIG   0.1815   0.4235 
4     C4       2.8662   -7.7743   -1.1184 C.ar    1  LIG  -0.1914  -0.1435 
5     C5       2.0444   -8.9059   -0.9814 C.ar    1  LIG  -0.1202  -0.1500 
6     C6       2.5982  -10.1776   -0.8234 C.ar    1  LIG  -0.1152  -0.1500 
7     C7       3.9811  -10.3377   -0.8004 C.ar    1  LIG  -0.0970  -0.1500 
8     C8       4.8102   -9.2269   -0.9362 C.ar    1  LIG  -0.1179  -0.1500 
9     C9       4.2581   -7.9536   -1.0944 C.ar    1  LIG  -0.1300  -0.1500 
10    O1       3.1695   -5.4747   -1.7846 O.3     1  LIG  -0.6270  -0.6800 
11    C10      2.9744   -6.4232    2.1359 C.3     1  LIG   0.0782   0.5030 
12    H1       2.6767   -4.7658   -2.2327 H       1  LIG   0.4536   0.4000 
13    H2      -0.0183   -4.8265   -0.8722 H       1  LIG   0.0953   0.0000 
14    H3       0.3534   -4.2659    0.7634 H       1  LIG   0.0654   0.0000 
15    H4       1.3898   -3.7871   -0.5886 H       1  LIG   0.0847   0.0000 
16    H5       0.9910   -6.6114    0.5338 H       1  LIG   0.1114   0.0000 
17    H6       1.4044   -6.5395   -2.0031 H       1  LIG   0.0923   0.0000 
18    H7       0.9615   -8.8038   -0.9979 H       1  LIG   0.1382   0.1500 
19    H8       1.9496  -11.0429   -0.7194 H       1  LIG   0.1571   0.1500 
20    H9       4.4126  -11.3270   -0.6783 H       1  LIG   0.1587   0.1500 
21    H10      5.8895   -9.3509   -0.9196 H       1  LIG   0.1555   0.1500 
22    H11      4.9321   -7.1068   -1.1953 H       1  LIG   0.1406   0.1500 
23    H12      3.8234   -6.0474    2.7113 H       1  LIG   0.1048   0.0000 
24    H13      2.0661   -6.4110    2.7430 H       1  LIG   0.1032   0.0000 
25    H14      3.1842   -7.4241    1.7560 H       1  LIG   0.1161   0.0000 
26    N1       2.7757   -5.5002    0.9851 N.4     1  LIG  -0.7543  -0.9060 
27    H15      3.6511   -5.4307    0.4455 H       1  LIG   0.4720   0.4500 
28    H16      2.6272   -4.5554    1.3658 H       1  LIG   0.4510   0.4500 
@<TRIPOS>BOND
1     1     2     1
2     1     13    1
3     1     14    1
4     1     15    1
5     2     3     1
6     2     16    1
7     2     26    1
8     3     4     1
9     3     10    1
10    3     17    1
11    4     9     ar
12    4     5     ar
13    5     6     ar
14    5     18    1
15    6     7     ar
16    6     19    1
17    7     8     ar
18    7     20    1
19    8     9     ar
20    8     21    1
21    9     22    1
22    10    12    1
23    11    23    1
24    11    24    1
25    11    25    1
26    11    26    1
27    26    27    1
28    26    28    1
@<TRIPOS>SUBSTRUCTURE
1   LIG    1    
 
########## Number      : 876
########## Name        : ZINC00020260
########## Description : AM1BCC_CHARGES =   1.0003 ORIGINAL_CHARGES =   1.0000

@<TRIPOS>MOLECULE
ZINC00020260
54    56    1     0     0    
SMALL
USER_CHARGES
****
****
@<TRIPOS>ATOM
1     C1       5.6210  -11.7738    0.6385 C.3     1  LIG  -0.0103   0.4895 
2     N1       6.6466  -10.7150    0.6626 N.pl3   1  LIG  -0.2164  -0.8334 
3     C2       8.0624  -11.1386    0.5386 C.3     1  LIG   0.0019   0.4895 
4     C3       8.9740  -10.1221    1.2057 C.3     1  LIG  -0.1225   0.0000 
5     C4       8.7123   -8.7467    0.6249 C.3     1  LIG   0.0031   0.4895 
6     C5       6.3592   -9.4071    0.7612 C.cat   1  LIG   0.3770   0.6038 
7     C6       4.9549   -8.9324    0.8928 C.3     1  LIG   0.0668   0.3850 
8     O1       4.8642   -7.9881    1.9796 O.3     1  LIG  -0.4228  -0.4300 
9     C7       4.7604   -8.5134    3.2352 C.2     1  LIG   0.6062   0.6590 
10    O2       4.7267   -9.7112    3.4963 O.2     1  LIG  -0.5369  -0.5700 
11    C8       4.6973   -7.4083    4.3168 C.3     1  LIG   0.2040   0.4845 
12    C9       5.8010   -6.3673    4.0670 C.ar    1  LIG  -0.0878  -0.1435 
13    C10      5.5895   -4.9811    4.1097 C.ar    1  LIG  -0.0948  -0.1500 
14    C11      6.6407   -4.0815    3.9001 C.ar    1  LIG  -0.1223  -0.1500 
15    C12      7.9301   -4.5482    3.6644 C.ar    1  LIG  -0.1064  -0.1500 
16    C13      8.1738   -5.9163    3.6499 C.ar    1  LIG  -0.1452  -0.1500 
17    C14      7.1240   -6.8136    3.8581 C.ar    1  LIG  -0.1286  -0.1500 
18    C15      3.2202   -6.8559    4.3783 C.3     1  LIG  -0.0907   0.0000 
19    C16      2.2080   -7.8918    4.9309 C.3     1  LIG  -0.0862   0.0000 
20    C17      0.8076   -7.2959    5.0885 C.3     1  LIG  -0.0761   0.0000 
21    C18      0.2975   -6.6745    3.7945 C.3     1  LIG  -0.0813   0.0000 
22    C19      1.2902   -5.6641    3.2318 C.3     1  LIG  -0.0781   0.0000 
23    C20      2.6718   -6.2906    3.0483 C.3     1  LIG  -0.0778   0.0000 
24    O3       5.0067   -7.9966    5.5772 O.3     1  LIG  -0.5661  -0.6800 
25    H1       4.5560   -8.8566    5.6346 H       1  LIG   0.4284   0.4000 
26    H2       6.0803  -12.7425    0.4193 H       1  LIG   0.0929   0.0000 
27    H3       5.1325  -11.8292    1.6148 H       1  LIG   0.0961   0.0000 
28    H4       4.8903  -11.5604   -0.1468 H       1  LIG   0.0724   0.0000 
29    H5       8.1914  -12.1147    1.0188 H       1  LIG   0.0999   0.0000 
30    H6       8.2938  -11.2417   -0.5272 H       1  LIG   0.0858   0.0000 
31    H7       8.7738  -10.1073    2.2842 H       1  LIG   0.0842   0.0000 
32    H8      10.0234  -10.4016    1.0667 H       1  LIG   0.1063   0.0000 
33    H9       9.2776   -7.9838    1.1682 H       1  LIG   0.0963   0.0000 
34    H10      8.9853   -8.6957   -0.4339 H       1  LIG   0.0871   0.0000 
35    H11      4.6714   -8.3966   -0.0198 H       1  LIG   0.1256   0.0000 
36    H12      4.2131   -9.7214    1.0379 H       1  LIG   0.1140   0.0000 
37    H13      4.6099   -4.5602    4.3131 H       1  LIG   0.1493   0.1500 
38    H14      6.4494   -3.0122    3.9302 H       1  LIG   0.1510   0.1500 
39    H15      8.7436   -3.8464    3.5064 H       1  LIG   0.1480   0.1500 
40    H16      9.1811   -6.2879    3.4856 H       1  LIG   0.1332   0.1500 
41    H17      7.3512   -7.8780    3.8622 H       1  LIG   0.1274   0.1500 
42    H18      3.2172   -6.0433    5.1193 H       1  LIG   0.0903   0.0000 
43    H19      2.1555   -8.7603    4.2635 H       1  LIG   0.0405   0.0000 
44    H20      2.5258   -8.2581    5.9130 H       1  LIG   0.0518   0.0000 
45    H21      0.1127   -8.0755    5.4210 H       1  LIG   0.0561   0.0000 
46    H22      0.8268   -6.5316    5.8753 H       1  LIG   0.0519   0.0000 
47    H23      0.1224   -7.4654    3.0549 H       1  LIG   0.0399   0.0000 
48    H24     -0.6668   -6.1858    3.9735 H       1  LIG   0.0582   0.0000 
49    H25      0.9252   -5.2903    2.2685 H       1  LIG   0.0521   0.0000 
50    H26      1.3631   -4.8007    3.9042 H       1  LIG   0.0498   0.0000 
51    H27      3.3442   -5.5404    2.6232 H       1  LIG   0.0510   0.0000 
52    H28      2.5783   -7.0908    2.3051 H       1  LIG   0.0350   0.0000 
53    N2       7.2837   -8.4446    0.7491 N.pl3   1  LIG  -0.3246  -0.7939 
54    H29      6.9660   -7.4827    0.8321 H       1  LIG   0.3417   0.4500 
@<TRIPOS>BOND
1     1     2     1
2     1     26    1
3     1     27    1
4     1     28    1
5     2     6     1
6     2     3     1
7     3     4     1
8     3     29    1
9     3     30    1
10    4     5     1
11    4     31    1
12    4     32    1
13    5     33    1
14    5     34    1
15    5     53    1
16    6     7     1
17    6     53    2
18    7     8     1
19    7     35    1
20    7     36    1
21    8     9     1
22    9     10    2
23    9     11    1
24    11    12    1
25    11    18    1
26    11    24    1
27    12    17    ar
28    12    13    ar
29    13    14    ar
30    13    37    1
31    14    15    ar
32    14    38    1
33    15    16    ar
34    15    39    1
35    16    17    ar
36    16    40    1
37    17    41    1
38    18    23    1
39    18    19    1
40    18    42    1
41    19    20    1
42    19    43    1
43    19    44    1
44    20    21    1
45    20    45    1
46    20    46    1
47    21    22    1
48    21    47    1
49    21    48    1
50    22    23    1
51    22    49    1
52    22    50    1
53    23    51    1
54    23    52    1
55    24    25    1
56    53    54    1
@<TRIPOS>SUBSTRUCTURE
1   LIG    1    
 
########## Number      : 877
########## Name        : ZINC00020365
########## Description : AM1BCC_CHARGES =  -0.0001 ORIGINAL_CHARGES =  -0.0000

@<TRIPOS>MOLECULE
ZINC00020365
29    31    1     0     0    
SMALL
USER_CHARGES
****
****
@<TRIPOS>ATOM
1     C1       6.1214   -9.1416    0.4963 C.ar    1  LIG  -0.1036  -0.1500 
2     C2       6.5658   -7.8183    0.4472 C.ar    1  LIG  -0.1510  -0.1500 
3     C3       6.1387   -6.8758    1.3968 C.ar    1  LIG   0.1295   0.1000 
4     C4       5.2578   -7.2967    2.4038 C.ar    1  LIG  -0.1512  -0.1500 
5     C5       4.8156   -8.6218    2.4474 C.ar    1  LIG   0.0030   0.1110 
6     C6       5.2421   -9.5463    1.4971 C.ar    1  LIG  -0.1260  -0.1500 
7     Br1      3.6261   -9.1655    3.8145 Br      1  LIG  -0.0773  -0.1110 
8     N1       6.6046   -5.5478    1.2858 N.pl3   1  LIG  -0.7209  -0.6000 
9     C7       6.1368   -4.3462    1.8476 C.ar    1  LIG   0.7047   0.4100 
10    C8       4.7710   -3.9744    1.8741 C.ar    1  LIG  -0.4431   0.0000 
11    C9       3.7006   -4.6451    1.2594 C.ar    1  LIG   0.4975   0.1600 
12    N2       2.4063   -4.2576    1.3145 N.ar    1  LIG  -0.7177  -0.6200 
13    C10      2.1267   -3.1236    1.9850 C.ar    1  LIG   0.6655   0.4100 
14    C11      3.1274   -2.3819    2.6081 C.ar    1  LIG  -0.3865  -0.1500 
15    C12      4.4561   -2.7837    2.5432 C.ar    1  LIG   0.4936   0.3100 
16    N3       5.3946   -2.0140    3.1082 N.ar    1  LIG  -0.7116  -0.6200 
17    C13      6.6646   -2.4224    2.9762 C.ar    1  LIG   0.6809   0.4700 
18    N4       7.0888   -3.5377    2.3663 N.ar    1  LIG  -0.7761  -0.6200 
19    N5       0.8010   -2.7216    2.1031 N.pl3   1  LIG  -0.9366  -0.9000 
20    H1       7.6066   -5.5129    1.1154 H       1  LIG   0.4325   0.4000 
21    H2       0.5941   -1.7381    2.2182 H       1  LIG   0.4162   0.4000 
22    H3       0.1071   -3.2996    1.6459 H       1  LIG   0.4250   0.4000 
23    H4       6.4609   -9.8549   -0.2495 H       1  LIG   0.1419   0.1500 
24    H5       7.2471   -7.5222   -0.3477 H       1  LIG   0.1435   0.1500 
25    H6       4.9279   -6.5991    3.1695 H       1  LIG   0.1593   0.1500 
26    H7       4.9025  -10.5780    1.5244 H       1  LIG   0.1511   0.1500 
27    H8       3.8529   -5.5396    0.6642 H       1  LIG   0.0399   0.1500 
28    H9       2.8704   -1.4705    3.1440 H       1  LIG   0.1620   0.1500 
29    H10      7.4266   -1.7864    3.4101 H       1  LIG   0.0554   0.1500 
@<TRIPOS>BOND
1     1     6     ar
2     1     2     ar
3     1     23    1
4     2     3     ar
5     2     24    1
6     3     4     ar
7     3     8     1
8     4     5     ar
9     4     25    1
10    5     6     ar
11    5     7     1
12    6     26    1
13    8     9     1
14    8     20    1
15    9     18    ar
16    9     10    ar
17    10    15    ar
18    10    11    ar
19    11    12    ar
20    11    27    1
21    12    13    ar
22    13    14    ar
23    13    19    1
24    14    15    ar
25    14    28    1
26    15    16    ar
27    16    17    ar
28    17    18    ar
29    17    29    1
30    19    21    1
31    19    22    1
@<TRIPOS>SUBSTRUCTURE
1   LIG    1    
 
########## Number      : 878
########## Name        : ZINC00020574
########## Description : AM1BCC_CHARGES =   0.9997 ORIGINAL_CHARGES =   1.0000

@<TRIPOS>MOLECULE
ZINC00020574
44    47    1     0     0    
SMALL
USER_CHARGES
****
****
@<TRIPOS>ATOM
1     C1       5.0079   -2.2431   -0.1288 C.3     1  LIG   0.0822   0.5030 
2     C2       2.5521   -1.9141   -0.2592 C.3     1  LIG   0.0780   0.5030 
3     C3       3.8959   -0.7854    1.5616 C.3     1  LIG   0.0809   0.5030 
4     C4       2.9777    0.4267    1.7368 C.3     1  LIG   0.2258   0.3691 
5     N1       3.1456    0.9839    3.0589 N.pl3   1  LIG  -0.9116  -0.8691 
6     C5       2.5440    2.0696    3.6363 C.ar    1  LIG   0.7444   0.4100 
7     C6       1.5950    2.9258    3.0975 C.ar    1  LIG  -0.3694   0.0862 
8     C7       1.0691    4.0054    3.8147 C.ar    1  LIG   0.1138   0.0000 
9     C8       1.5391    4.2228    5.1614 C.ar    1  LIG  -0.1742   0.0000 
10    C9       1.1227    5.2587    6.0343 C.ar    1  LIG  -0.0910  -0.1500 
11    C10      1.6366    5.3876    7.3249 C.ar    1  LIG  -0.1336  -0.1500 
12    C11      2.5807    4.4833    7.7763 C.ar    1  LIG  -0.0816  -0.1500 
13    C12      3.0017    3.4590    6.9326 C.ar    1  LIG  -0.1966  -0.1500 
14    C13      2.5007    3.3146    5.6426 C.ar    1  LIG   0.4833   0.3100 
15    N2       2.9685    2.2953    4.9047 N.ar    1  LIG  -0.7517  -0.6200 
16    C14      0.1275    4.6944    3.0082 C.ar    1  LIG  -0.0416   0.0000 
17    C15     -0.7021    5.8357    3.1927 C.ar    1  LIG  -0.0874  -0.1500 
18    C16     -1.5495    6.2758    2.1658 C.ar    1  LIG  -0.1005  -0.1500 
19    C17     -1.5933    5.6004    0.9436 C.ar    1  LIG  -0.1230  -0.1500 
20    C18     -0.7921    4.4831    0.7403 C.ar    1  LIG  -0.0524  -0.1500 
21    C19      0.0354    4.0766    1.7817 C.ar    1  LIG  -0.1842   0.0862 
22    C20      0.9443    2.9386    1.7690 C.2     1  LIG   0.6361   0.3976 
23    O1       1.0765    2.2019    0.8184 O.2     1  LIG  -0.5911  -0.5700 
24    H1       3.8070    0.5242    3.6782 H       1  LIG   0.4522   0.4000 
25    H2       5.9426   -1.7181    0.0851 H       1  LIG   0.1060   0.0000 
26    H3       4.8897   -3.1166    0.5179 H       1  LIG   0.1064   0.0000 
27    H4       4.9783   -2.5276   -1.1840 H       1  LIG   0.1066   0.0000 
28    H5       1.7784   -1.1450   -0.2171 H       1  LIG   0.1232   0.0000 
29    H6       2.6413   -2.2786   -1.2863 H       1  LIG   0.1035   0.0000 
30    H7       2.3340   -2.7355    0.4282 H       1  LIG   0.1035   0.0000 
31    H8       3.6141   -1.6148    2.2205 H       1  LIG   0.1076   0.0000 
32    H9       4.9330   -0.5025    1.7774 H       1  LIG   0.1056   0.0000 
33    H10      3.2407    1.1759    0.9833 H       1  LIG   0.0731   0.0000 
34    H11      1.9391    0.1097    1.6102 H       1  LIG   0.0733   0.0000 
35    H12      0.3876    5.9923    5.7331 H       1  LIG   0.1384   0.1500 
36    H13      1.2967    6.1928    7.9695 H       1  LIG   0.1491   0.1500 
37    H14      2.9904    4.5699    8.7780 H       1  LIG   0.1499   0.1500 
38    H15      3.7456    2.7547    7.3019 H       1  LIG   0.1582   0.1500 
39    H16     -0.7079    6.3958    4.1182 H       1  LIG   0.1484   0.1500 
40    H17     -2.1771    7.1493    2.3222 H       1  LIG   0.1504   0.1500 
41    H18     -2.2532    5.9492    0.1543 H       1  LIG   0.1510   0.1500 
42    H19     -0.8163    3.9493   -0.2037 H       1  LIG   0.1526   0.1500 
43    N3       3.8669   -1.2944    0.1334 N.4     1  LIG  -0.6732  -0.9590 
44    H20      4.0162   -0.4857   -0.4856 H       1  LIG   0.4593   0.4500 
@<TRIPOS>BOND
1     1     25    1
2     1     26    1
3     1     27    1
4     1     43    1
5     2     28    1
6     2     29    1
7     2     30    1
8     2     43    1
9     3     4     1
10    3     31    1
11    3     32    1
12    3     43    1
13    4     5     1
14    4     33    1
15    4     34    1
16    5     6     1
17    5     24    1
18    6     15    ar
19    6     7     ar
20    7     22    1
21    7     8     ar
22    8     9     ar
23    8     16    1
24    9     14    ar
25    9     10    ar
26    10    11    ar
27    10    35    1
28    11    12    ar
29    11    36    1
30    12    13    ar
31    12    37    1
32    13    14    ar
33    13    38    1
34    14    15    ar
35    16    21    ar
36    16    17    ar
37    17    18    ar
38    17    39    1
39    18    19    ar
40    18    40    1
41    19    20    ar
42    19    41    1
43    20    21    ar
44    20    42    1
45    21    22    1
46    22    23    2
47    43    44    1
@<TRIPOS>SUBSTRUCTURE
1   LIG    1    
 
########## Number      : 879
########## Name        : ZINC00021005
########## Description : AM1BCC_CHARGES =  -0.0002 ORIGINAL_CHARGES =  -0.0000

@<TRIPOS>MOLECULE
ZINC00021005
30    30    1     0     0    
SMALL
USER_CHARGES
****
****
@<TRIPOS>ATOM
1     C1       6.4304   -5.7865   -0.6698 C.3     1  LIG  -0.0909   0.0000 
2     C2       5.0249   -6.3443   -0.3611 C.3     1  LIG  -0.0998   0.0000 
3     C3       5.0708   -7.0250    1.0206 C.3     1  LIG  -0.0945   0.0000 
4     C4       4.0348   -5.1473   -0.3391 C.3     1  LIG   0.2203   0.3691 
5     N1       2.6691   -5.5587   -0.0768 N.pl3   1  LIG  -0.8604  -0.8691 
6     C5       1.5999   -4.7003    0.0822 C.ar    1  LIG   0.7310   0.4100 
7     C6       1.7403   -3.3246    0.1111 C.ar    1  LIG  -0.4795  -0.1500 
8     C7       0.5841   -2.5958    0.2819 C.ar    1  LIG   0.5884   0.4870 
9     N2      -0.6410   -3.1285    0.4199 N.ar    1  LIG  -0.7817  -0.6200 
10    C8      -0.7036   -4.4706    0.3837 C.ar    1  LIG   0.9128   0.7200 
11    N3       0.3762   -5.2677    0.2205 N.ar    1  LIG  -0.8187  -0.6200 
12    N4      -1.9403   -5.0706    0.5212 N.pl3   1  LIG  -0.9290  -0.9000 
13    Cl1      0.6252   -0.8797    0.3334 Cl      1  LIG  -0.1571  -0.1770 
14    C9       4.6680   -7.3650   -1.4666 C.3     1  LIG   0.1282   0.2800 
15    O1       3.4458   -8.0447   -1.2107 O.3     1  LIG  -0.6008  -0.6800 
16    H1       2.4379   -6.5456   -0.1260 H       1  LIG   0.4578   0.4000 
17    H2      -2.7617   -4.4969    0.6439 H       1  LIG   0.4303   0.4000 
18    H3      -2.0100   -6.0774    0.4961 H       1  LIG   0.4288   0.4000 
19    H4       3.6152   -8.7003   -0.5128 H       1  LIG   0.4046   0.4000 
20    H5       6.4545   -5.2940   -1.6485 H       1  LIG   0.0406   0.0000 
21    H6       6.7398   -5.0510    0.0814 H       1  LIG   0.0445   0.0000 
22    H7       7.1806   -6.5854   -0.6802 H       1  LIG   0.0427   0.0000 
23    H8       4.0961   -7.4237    1.3195 H       1  LIG   0.0470   0.0000 
24    H9       5.7826   -7.8583    1.0224 H       1  LIG   0.0349   0.0000 
25    H10      5.3865   -6.3180    1.7963 H       1  LIG   0.0493   0.0000 
26    H11      4.3594   -4.4387    0.4337 H       1  LIG   0.0532   0.0000 
27    H12      4.0732   -4.6239   -1.3030 H       1  LIG   0.0338   0.0000 
28    H13      2.6987   -2.8326    0.0048 H       1  LIG   0.1604   0.1500 
29    H14      4.5681   -6.8603   -2.4340 H       1  LIG   0.0716   0.0000 
30    H15      5.4540   -8.1214   -1.5751 H       1  LIG   0.0320   0.0000 
@<TRIPOS>BOND
1     1     2     1
2     1     20    1
3     1     21    1
4     1     22    1
5     2     3     1
6     2     4     1
7     2     14    1
8     3     23    1
9     3     24    1
10    3     25    1
11    4     5     1
12    4     26    1
13    4     27    1
14    5     6     1
15    5     16    1
16    6     11    ar
17    6     7     ar
18    7     8     ar
19    7     28    1
20    8     9     ar
21    8     13    1
22    9     10    ar
23    10    11    ar
24    10    12    1
25    12    17    1
26    12    18    1
27    14    15    1
28    14    29    1
29    14    30    1
30    15    19    1
@<TRIPOS>SUBSTRUCTURE
1   LIG    1    
 
########## Number      : 880
########## Name        : ZINC00021006
########## Description : AM1BCC_CHARGES =   0.0002 ORIGINAL_CHARGES =  -0.0000

@<TRIPOS>MOLECULE
ZINC00021006
32    32    1     0     0    
SMALL
USER_CHARGES
****
****
@<TRIPOS>ATOM
1     C1       7.0793   -6.5163   -1.0995 C.3     1  LIG  -0.0914   0.0000 
2     C2       5.5411   -6.6282   -1.1473 C.3     1  LIG  -0.0730   0.0000 
3     C3       5.1114   -7.7774   -0.2140 C.3     1  LIG  -0.0857   0.0000 
4     C4       4.9511   -5.2771   -0.6502 C.3     1  LIG   0.2132   0.3691 
5     N1       3.5043   -5.2639   -0.6677 N.pl3   1  LIG  -0.8441  -0.8691 
6     C5       2.6231   -4.3642   -0.1162 C.ar    1  LIG   0.7153   0.4100 
7     C6       2.9466   -3.1622    0.5119 C.ar    1  LIG  -0.2183   0.1000 
8     C7       1.8576   -2.4911    1.0667 C.ar    1  LIG   0.5340   0.4870 
9     N2       0.5705   -2.8747    0.9880 N.ar    1  LIG  -0.7608  -0.6200 
10    C8       0.3425   -4.0128    0.3244 C.ar    1  LIG   0.8905   0.7200 
11    N3       1.3230   -4.7592   -0.2209 N.ar    1  LIG  -0.8103  -0.6200 
12    N4      -0.9611   -4.4502    0.1964 N.pl3   1  LIG  -0.9169  -0.9000 
13    Cl1      2.0504   -1.0097    1.9365 Cl      1  LIG  -0.1645  -0.1770 
14    N5       4.2297   -2.6667    0.6825 N.pl3   1  LIG  -0.7820  -0.9000 
15    C9       5.1313   -6.9356   -2.6056 C.3     1  LIG   0.1334   0.2800 
16    O1       3.7357   -7.1827   -2.7177 O.3     1  LIG  -0.6071  -0.6800 
17    H1       3.0480   -6.0511   -1.1219 H       1  LIG   0.4441   0.4000 
18    H2      -1.7107   -3.9079    0.6002 H       1  LIG   0.4227   0.4000 
19    H3      -1.1512   -5.3092   -0.2986 H       1  LIG   0.4217   0.4000 
20    H4       4.9914   -2.9815    0.1033 H       1  LIG   0.3678   0.4000 
21    H5       4.3457   -1.7680    1.1362 H       1  LIG   0.3769   0.4000 
22    H6       3.5528   -7.3674   -3.6549 H       1  LIG   0.4063   0.4000 
23    H7       7.4380   -5.7135   -1.7536 H       1  LIG   0.0362   0.0000 
24    H8       7.4304   -6.3013   -0.0839 H       1  LIG   0.0456   0.0000 
25    H9       7.5554   -7.4484   -1.4245 H       1  LIG   0.0422   0.0000 
26    H10      4.0259   -7.9189   -0.2031 H       1  LIG   0.0558   0.0000 
27    H11      5.5621   -8.7256   -0.5285 H       1  LIG   0.0400   0.0000 
28    H12      5.4293   -7.5858    0.8171 H       1  LIG   0.0361   0.0000 
29    H13      5.3097   -5.1040    0.3717 H       1  LIG   0.0648   0.0000 
30    H14      5.3254   -4.4709   -1.2922 H       1  LIG   0.0452   0.0000 
31    H15      5.3846   -6.0966   -3.2634 H       1  LIG   0.0321   0.0000 
32    H16      5.6555   -7.8253   -2.9727 H       1  LIG   0.0304   0.0000 
@<TRIPOS>BOND
1     1     2     1
2     1     23    1
3     1     24    1
4     1     25    1
5     2     3     1
6     2     4     1
7     2     15    1
8     3     26    1
9     3     27    1
10    3     28    1
11    4     5     1
12    4     29    1
13    4     30    1
14    5     6     1
15    5     17    1
16    6     11    ar
17    6     7     ar
18    7     8     ar
19    7     14    1
20    8     9     ar
21    8     13    1
22    9     10    ar
23    10    11    ar
24    10    12    1
25    12    18    1
26    12    19    1
27    14    20    1
28    14    21    1
29    15    16    1
30    15    31    1
31    15    32    1
32    16    22    1
@<TRIPOS>SUBSTRUCTURE
1   LIG    1    
 
########## Number      : 881
########## Name        : ZINC00021049
########## Description : AM1BCC_CHARGES =   0.0000 ORIGINAL_CHARGES =   0.0000

@<TRIPOS>MOLECULE
ZINC00021049
39    39    1     0     0    
SMALL
USER_CHARGES
****
****
@<TRIPOS>ATOM
1     C1       6.3657   -9.8796   -1.4320 C.3     1  LIG  -0.1016   0.0000 
2     C2       5.0097   -9.2480   -1.1383 C.3     1  LIG   0.1394   0.2800 
3     C3       4.0997  -10.2376   -0.4215 C.3     1  LIG  -0.1166   0.0000 
4     O1       5.2591   -8.1103   -0.2645 O.3     1  LIG  -0.4213  -0.4300 
5     C4       4.5106   -6.9705   -0.1632 C.2     1  LIG   0.5936   0.5900 
6     S1       3.1813   -6.7063   -1.1323 S.2     1  LIG  -0.5220  -0.3800 
7     N1       5.0758   -6.1846    0.8193 N.pl3   1  LIG  -0.3979  -0.5470 
8     C5       4.7555   -4.9199    1.3707 C.ar    1  LIG   0.0543   0.1170 
9     C6       3.6751   -4.1190    1.0114 C.ar    1  LIG  -0.1356  -0.1500 
10    C7       3.4666   -2.8827    1.6353 C.ar    1  LIG  -0.1106  -0.1500 
11    C8       4.3317   -2.4210    2.6318 C.ar    1  LIG   0.0266   0.1770 
12    C9       5.4212   -3.2111    3.0095 C.ar    1  LIG  -0.0873   0.0862 
13    C10      5.6214   -4.4503    2.3754 C.ar    1  LIG  -0.1578  -0.1500 
14    C11      6.4204   -2.8628    4.0446 C.2     1  LIG   0.3777   0.3038 
15    N2       6.3778   -1.7841    4.7549 N.2     1  LIG  -0.3932  -0.5130 
16    O2       7.4735   -1.7748    5.6304 O.3     1  LIG  -0.2012  -0.2170 
17    C12      7.4311   -0.5777    6.4111 C.3     1  LIG   0.1585   0.2800 
18    C13      8.2165   -0.8369    7.6900 C.3     1  LIG  -0.1022   0.0000 
19    C14      8.0460    0.5702    5.6192 C.3     1  LIG  -0.1200   0.0000 
20    Cl1      3.9676   -0.8783    3.3169 Cl      1  LIG  -0.0640  -0.1770 
21    H1       5.9008   -6.6174    1.2280 H       1  LIG   0.3324   0.3700 
22    H2       7.0243   -9.1542   -1.9219 H       1  LIG   0.0498   0.0000 
23    H3       6.8675  -10.1844   -0.5069 H       1  LIG   0.0491   0.0000 
24    H4       6.2650  -10.7539   -2.0822 H       1  LIG   0.0524   0.0000 
25    H5       4.5697   -8.9261   -2.0871 H       1  LIG   0.0995   0.0000 
26    H6       3.1295   -9.7864   -0.1923 H       1  LIG   0.0563   0.0000 
27    H7       3.9286  -11.1303   -1.0309 H       1  LIG   0.0518   0.0000 
28    H8       4.5339  -10.5449    0.5364 H       1  LIG   0.0465   0.0000 
29    H9       2.9574   -4.4013    0.2543 H       1  LIG   0.1960   0.1500 
30    H10      2.6114   -2.2842    1.3265 H       1  LIG   0.1550   0.1500 
31    H11      6.4712   -5.0663    2.6694 H       1  LIG   0.1376   0.1500 
32    H12      7.2407   -3.5885    4.2001 H       1  LIG   0.0009   0.0600 
33    H13      6.3935   -0.3402    6.6784 H       1  LIG   0.0645   0.0000 
34    H14      8.2214    0.0435    8.3397 H       1  LIG   0.0468   0.0000 
35    H15      7.7784   -1.6754    8.2422 H       1  LIG   0.0497   0.0000 
36    H16      9.2525   -1.1151    7.4664 H       1  LIG   0.0490   0.0000 
37    H17      8.0666    1.4922    6.2082 H       1  LIG   0.0426   0.0000 
38    H18      9.0682    0.3282    5.3077 H       1  LIG   0.0478   0.0000 
39    H19      7.4752    0.7588    4.7038 H       1  LIG   0.0535   0.0000 
@<TRIPOS>BOND
1     1     2     1
2     1     22    1
3     1     23    1
4     1     24    1
5     2     3     1
6     2     4     1
7     2     25    1
8     3     26    1
9     3     27    1
10    3     28    1
11    4     5     1
12    5     6     2
13    5     7     1
14    7     8     1
15    7     21    1
16    8     13    ar
17    8     9     ar
18    9     10    ar
19    9     29    1
20    10    11    ar
21    10    30    1
22    11    12    ar
23    11    20    1
24    12    13    ar
25    12    14    1
26    13    31    1
27    14    15    2
28    14    32    1
29    15    16    1
30    16    17    1
31    17    18    1
32    17    19    1
33    17    33    1
34    18    34    1
35    18    35    1
36    18    36    1
37    19    37    1
38    19    38    1
39    19    39    1
@<TRIPOS>SUBSTRUCTURE
1   LIG    1    
 
########## Number      : 882
########## Name        : ZINC00021105
########## Description : AM1BCC_CHARGES =   0.0001 ORIGINAL_CHARGES =   0.0000

@<TRIPOS>MOLECULE
ZINC00021105
17    17    1     0     0    
SMALL
USER_CHARGES
****
****
@<TRIPOS>ATOM
1     C1       4.8132   -8.3722   -0.3828 C.ar    1  LIG  -0.0009  -0.1500 
2     C2       3.8404   -7.3820   -0.5112 C.ar    1  LIG  -0.3204  -0.1500 
3     C3       2.8323   -7.5363   -1.4593 C.ar    1  LIG   0.6653   0.4100 
4     N1       2.7860   -8.6140   -2.2771 N.ar    1  LIG  -0.7374  -0.6200 
5     C4       3.7418   -9.5647   -2.1330 C.ar    1  LIG   0.4709   0.1600 
6     C5       4.7761   -9.4911   -1.2123 C.ar    1  LIG  -0.3199   0.0862 
7     C6       5.8105  -10.5418   -1.0602 C.2     1  LIG   0.6845   0.5438 
8     O1       6.4680  -10.6175   -0.0264 O.2     1  LIG  -0.6200  -0.5700 
9     N2       5.9989  -11.3938   -2.1239 N.am    1  LIG  -0.6739  -0.8000 
10    N3       1.8855   -6.5307   -1.6205 N.pl3   1  LIG  -0.9392  -0.9000 
11    H1       6.6973  -12.1269   -2.0600 H       1  LIG   0.3169   0.3700 
12    H2       5.5086  -11.3218   -3.0074 H       1  LIG   0.3048   0.3700 
13    H3       1.1812   -6.6783   -2.3323 H       1  LIG   0.4243   0.4000 
14    H4       1.6391   -5.9574   -0.8243 H       1  LIG   0.4146   0.4000 
15    H5       5.5956   -8.2490    0.3615 H       1  LIG   0.1643   0.1500 
16    H6       3.8788   -6.5038    0.1265 H       1  LIG   0.1464   0.1500 
17    H7       3.6151  -10.4085   -2.8023 H       1  LIG   0.0198   0.1500 
@<TRIPOS>BOND
1     1     6     ar
2     1     2     ar
3     1     15    1
4     2     3     ar
5     2     16    1
6     3     4     ar
7     3     10    1
8     4     5     ar
9     5     6     ar
10    5     17    1
11    6     7     1
12    7     8     2
13    7     9     am
14    9     11    1
15    9     12    1
16    10    13    1
17    10    14    1
@<TRIPOS>SUBSTRUCTURE
1   LIG    1    
 
########## Number      : 883
########## Name        : ZINC00021240
########## Description : AM1BCC_CHARGES =  -0.0002 ORIGINAL_CHARGES =   0.0000

@<TRIPOS>MOLECULE
ZINC00021240
25    26    1     0     0    
SMALL
USER_CHARGES
****
****
@<TRIPOS>ATOM
1     C1       5.2126   -8.2986    0.6720 C.3     1  LIG  -0.1321   0.0000 
2     C2       3.8720   -8.6061    0.0281 C.3     1  LIG   0.1205   0.2800 
3     O1       2.8401   -7.7897    0.5790 O.3     1  LIG  -0.2986  -0.3567 
4     C3       2.6183   -6.5224    0.0839 C.2     1  LIG   0.0885   0.0911 
5     C4       3.2991   -5.9255   -0.9061 C.2     1  LIG  -0.3234  -0.1356 
6     C5       3.0019   -4.5585   -1.3836 C.2     1  LIG   0.5865   0.4694 
7     O2       3.6567   -4.0608   -2.2914 O.2     1  LIG  -0.5267  -0.5700 
8     C6       1.9029   -3.8285   -0.7338 C.ar    1  LIG  -0.1272   0.0862 
9     C7       1.5877   -2.5316   -1.1560 C.ar    1  LIG  -0.0875  -0.1500 
10    C8       0.5464   -1.8343   -0.5433 C.ar    1  LIG  -0.1123  -0.1500 
11    C9      -0.1792   -2.4279    0.4880 C.ar    1  LIG  -0.1199  -0.1500 
12    C10      0.1342   -3.7208    0.9098 C.ar    1  LIG  -0.0828  -0.1500 
13    C11      1.1788   -4.4242    0.2972 C.ar    1  LIG  -0.1384   0.0862 
14    C12      1.5014   -5.7905    0.7513 C.2     1  LIG   0.5767   0.4694 
15    O3       0.8614   -6.3102    1.6598 O.2     1  LIG  -0.4778  -0.5700 
16    H1       5.9837   -8.9810    0.3030 H       1  LIG   0.0513   0.0000 
17    H2       5.5306   -7.2722    0.4665 H       1  LIG   0.0486   0.0000 
18    H3       5.1464   -8.3980    1.7606 H       1  LIG   0.0572   0.0000 
19    H4       3.9077   -8.5457   -1.0650 H       1  LIG   0.0487   0.0000 
20    H5       3.6061   -9.6424    0.2656 H       1  LIG   0.0791   0.0000 
21    H6       4.1206   -6.4093   -1.4214 H       1  LIG   0.1625   0.1500 
22    H7       2.1420   -2.0517   -1.9586 H       1  LIG   0.1621   0.1500 
23    H8       0.3009   -0.8277   -0.8702 H       1  LIG   0.1425   0.1500 
24    H9      -0.9899   -1.8836    0.9643 H       1  LIG   0.1427   0.1500 
25    H10     -0.4451   -4.1640    1.7159 H       1  LIG   0.1596   0.1500 
@<TRIPOS>BOND
1     1     2     1
2     1     16    1
3     1     17    1
4     1     18    1
5     2     3     1
6     2     19    1
7     2     20    1
8     3     4     1
9     4     14    1
10    4     5     2
11    5     6     1
12    5     21    1
13    6     7     2
14    6     8     1
15    8     13    ar
16    8     9     ar
17    9     10    ar
18    9     22    1
19    10    11    ar
20    10    23    1
21    11    12    ar
22    11    24    1
23    12    13    ar
24    12    25    1
25    13    14    1
26    14    15    2
@<TRIPOS>SUBSTRUCTURE
1   LIG    1    
 
########## Number      : 884
########## Name        : ZINC00021265
########## Description : AM1BCC_CHARGES =   1.0001 ORIGINAL_CHARGES =   1.0000

@<TRIPOS>MOLECULE
ZINC00021265
36    38    1     0     0    
SMALL
USER_CHARGES
****
****
@<TRIPOS>ATOM
1     C1       8.8623   -9.1551    1.4040 C.3     1  LIG   0.0853   0.5030 
2     C2       7.3446   -7.4417    0.4016 C.3     1  LIG   0.0693   0.5030 
3     C3       5.9522   -6.8242    0.5125 C.3     1  LIG   0.1721   0.3691 
4     N1       5.7656   -6.2384    1.8444 N.pl3   1  LIG  -0.6346  -0.8382 
5     C4       5.9779   -7.1717    2.9584 C.3     1  LIG   0.1821   0.3691 
6     C5       7.3666   -7.7973    2.8750 C.3     1  LIG   0.0640   0.5030 
7     C6       5.3110   -4.9306    2.0465 C.2     1  LIG  -0.0237   0.1144 
8     C7       4.1910   -4.3833    1.5379 C.2     1  LIG   0.0028   0.1544 
9     C8       3.7755   -2.9783    1.7895 C.2     1  LIG   0.5655   0.4694 
10    O1       2.7725   -2.4925    1.2787 O.2     1  LIG  -0.4482  -0.5700 
11    C9       4.6106   -2.1715    2.6913 C.ar    1  LIG  -0.1311   0.0862 
12    C10      4.2265   -0.8608    3.0036 C.ar    1  LIG  -0.0704  -0.1500 
13    C11      5.0121   -0.0873    3.8581 C.ar    1  LIG  -0.0924  -0.1500 
14    C12      6.1800   -0.6178    4.4007 C.ar    1  LIG  -0.1075  -0.1500 
15    C13      6.5644   -1.9224    4.0893 C.ar    1  LIG  -0.0694  -0.1500 
16    C14      5.7767   -2.7029    3.2323 C.ar    1  LIG  -0.1513   0.0862 
17    C15      6.2015   -4.0757    2.9054 C.2     1  LIG   0.5905   0.4694 
18    O2       7.2785   -4.4902    3.3244 O.2     1  LIG  -0.5777  -0.5700 
19    Cl1      3.0680   -5.3060    0.5860 Cl      1  LIG  -0.0066  -0.1400 
20    H1       8.9146   -9.9014    2.2010 H       1  LIG   0.1023   0.0000 
21    H2       8.8985   -9.6481    0.4291 H       1  LIG   0.1015   0.0000 
22    H3       9.6652   -8.4197    1.5019 H       1  LIG   0.1116   0.0000 
23    H4       8.1325   -6.6858    0.4970 H       1  LIG   0.1233   0.0000 
24    H5       7.4575   -7.9767   -0.5468 H       1  LIG   0.1054   0.0000 
25    H6       5.8506   -6.0649   -0.2717 H       1  LIG   0.1113   0.0000 
26    H7       5.1846   -7.5876    0.3367 H       1  LIG   0.0801   0.0000 
27    H8       5.8586   -6.6751    3.9284 H       1  LIG   0.1079   0.0000 
28    H9       5.2100   -7.9543    2.9140 H       1  LIG   0.0799   0.0000 
29    H10      7.4853   -8.5806    3.6305 H       1  LIG   0.1012   0.0000 
30    H11      8.1619   -7.0526    2.9870 H       1  LIG   0.1374   0.0000 
31    H12      3.3187   -0.4273    2.5911 H       1  LIG   0.1726   0.1500 
32    H13      4.7130    0.9287    4.1001 H       1  LIG   0.1609   0.1500 
33    H14      6.7924   -0.0154    5.0659 H       1  LIG   0.1581   0.1500 
34    H15      7.4808   -2.3142    4.5240 H       1  LIG   0.1581   0.1500 
35    N2       7.5431   -8.4455    1.5174 N.4     1  LIG  -0.6734  -0.9590 
36    H16      6.8119   -9.1634    1.4207 H       1  LIG   0.4432   0.4500 
@<TRIPOS>BOND
1     1     20    1
2     1     21    1
3     1     22    1
4     1     35    1
5     2     3     1
6     2     23    1
7     2     24    1
8     2     35    1
9     3     4     1
10    3     25    1
11    3     26    1
12    4     5     1
13    4     7     1
14    5     6     1
15    5     27    1
16    5     28    1
17    6     29    1
18    6     30    1
19    6     35    1
20    7     17    1
21    7     8     2
22    8     9     1
23    8     19    1
24    9     10    2
25    9     11    1
26    11    16    ar
27    11    12    ar
28    12    13    ar
29    12    31    1
30    13    14    ar
31    13    32    1
32    14    15    ar
33    14    33    1
34    15    16    ar
35    15    34    1
36    16    17    1
37    17    18    2
38    35    36    1
@<TRIPOS>SUBSTRUCTURE
1   LIG    1    
 
########## Number      : 885
########## Name        : ZINC00021268
########## Description : AM1BCC_CHARGES =  -0.0001 ORIGINAL_CHARGES =   0.0000

@<TRIPOS>MOLECULE
ZINC00021268
31    33    1     0     0    
SMALL
USER_CHARGES
****
****
@<TRIPOS>ATOM
1     C1       4.3946   -7.1404   -1.2639 C.ar    1  LIG  -0.1175  -0.1500 
2     C2       4.2943   -6.1508   -0.2891 C.ar    1  LIG  -0.1112  -0.1500 
3     C3       3.0467   -5.6217    0.0412 C.ar    1  LIG  -0.0837  -0.1500 
4     C4       1.8938   -6.0857   -0.6061 C.ar    1  LIG  -0.1272   0.0862 
5     C5       1.9919   -7.0738   -1.5798 C.ar    1  LIG  -0.1373   0.0862 
6     C6       3.2474   -7.6020   -1.9103 C.ar    1  LIG  -0.0813  -0.1500 
7     C7       0.7911   -7.5641   -2.2794 C.2     1  LIG   0.5628   0.4694 
8     O1       0.9185   -8.3632   -3.2028 O.2     1  LIG  -0.5171  -0.5700 
9     C8      -0.5602   -7.0549   -1.8567 C.2     1  LIG   0.0800   0.1144 
10    C9      -0.6171   -6.0957   -0.9134 C.2     1  LIG  -0.0938   0.1544 
11    C10      0.5837   -5.5215   -0.2510 C.2     1  LIG   0.5814   0.4694 
12    O2       0.5063   -4.6149    0.5707 O.2     1  LIG  -0.4940  -0.5700 
13    Cl1     -2.1276   -5.4818   -0.3129 Cl      1  LIG  -0.0510  -0.1400 
14    N1      -1.6428   -7.6328   -2.5262 N.pl3   1  LIG  -0.6456  -0.8382 
15    C11     -1.9089   -9.0773   -2.4975 C.3     1  LIG   0.1686   0.3691 
16    C12     -2.1890   -9.5719   -3.9132 C.3     1  LIG   0.0940   0.2800 
17    O3      -3.2654   -8.8307   -4.4973 O.3     1  LIG  -0.4099  -0.5600 
18    C13     -2.9364   -7.4409   -4.5868 C.3     1  LIG   0.0988   0.2800 
19    C14     -2.6903   -6.8552   -3.1977 C.3     1  LIG   0.1624   0.3691 
20    H1       5.3661   -7.5524   -1.5220 H       1  LIG   0.1441   0.1500 
21    H2       5.1874   -5.7908    0.2139 H       1  LIG   0.1444   0.1500 
22    H3       2.9906   -4.8501    0.8050 H       1  LIG   0.1628   0.1500 
23    H4       3.3506   -8.3740   -2.6689 H       1  LIG   0.1594   0.1500 
24    H5      -1.0789   -9.6415   -2.0582 H       1  LIG   0.0647   0.0000 
25    H6      -2.7885   -9.2491   -1.8651 H       1  LIG   0.0641   0.0000 
26    H7      -1.3035   -9.4865   -4.5537 H       1  LIG   0.0594   0.0000 
27    H8      -2.4836  -10.6257   -3.8897 H       1  LIG   0.0730   0.0000 
28    H9      -2.0587   -7.3188   -5.2329 H       1  LIG   0.0390   0.0000 
29    H10     -3.7769   -6.9282   -5.0649 H       1  LIG   0.0751   0.0000 
30    H11     -3.6101   -6.9106   -2.6038 H       1  LIG   0.0696   0.0000 
31    H12     -2.4067   -5.8019   -3.3012 H       1  LIG   0.0659   0.0000 
@<TRIPOS>BOND
1     1     6     ar
2     1     2     ar
3     1     20    1
4     2     3     ar
5     2     21    1
6     3     4     ar
7     3     22    1
8     4     11    1
9     4     5     ar
10    5     6     ar
11    5     7     1
12    6     23    1
13    7     8     2
14    7     9     1
15    9     10    2
16    9     14    1
17    10    11    1
18    10    13    1
19    11    12    2
20    14    19    1
21    14    15    1
22    15    16    1
23    15    24    1
24    15    25    1
25    16    17    1
26    16    26    1
27    16    27    1
28    17    18    1
29    18    19    1
30    18    28    1
31    18    29    1
32    19    30    1
33    19    31    1
@<TRIPOS>SUBSTRUCTURE
1   LIG    1    
 
########## Number      : 886
########## Name        : ZINC00021269
########## Description : AM1BCC_CHARGES =  -0.0003 ORIGINAL_CHARGES =  -0.0000

@<TRIPOS>MOLECULE
ZINC00021269
46    48    1     0     0    
SMALL
USER_CHARGES
****
****
@<TRIPOS>ATOM
1     C1       4.9764  -12.6561   -1.1043 C.ar    1  LIG  -0.1325  -0.1500 
2     C2       3.9073  -12.0034   -1.7152 C.ar    1  LIG  -0.1280  -0.1500 
3     C3       3.8978  -10.6106   -1.8067 C.ar    1  LIG  -0.1284  -0.1500 
4     C4       4.9607   -9.8574   -1.2899 C.ar    1  LIG  -0.0774  -0.1435 
5     C5       6.0289  -10.5241   -0.6735 C.ar    1  LIG  -0.1283  -0.1500 
6     C6       6.0366  -11.9169   -0.5832 C.ar    1  LIG  -0.1267  -0.1500 
7     C7       4.9447   -8.3518   -1.3704 C.3     1  LIG  -0.0262   0.1435 
8     C8       4.4166   -7.7619   -0.0688 C.3     1  LIG  -0.0814   0.0000 
9     C9       2.8964   -7.8850    0.2186 C.3     1  LIG  -0.0788   0.0000 
10    C10      2.9201   -6.4235    0.7664 C.3     1  LIG  -0.0980   0.0000 
11    C11      4.2212   -6.2249   -0.0733 C.3     1  LIG  -0.0730   0.0000 
12    C12      3.1027   -6.3785    2.3011 C.3     1  LIG   0.2089   0.3691 
13    N1       3.4348   -5.0485    2.7639 N.pl3   1  LIG  -0.8333  -0.8691 
14    C13      3.8526   -4.6215    4.0017 C.ar    1  LIG   0.6838   0.4100 
15    C14      3.9494   -5.3935    5.1587 C.ar    1  LIG  -0.1935   0.1000 
16    C15      4.4913   -4.7229    6.2546 C.ar    1  LIG   0.5215   0.4870 
17    N2       4.8543   -3.4278    6.2873 N.ar    1  LIG  -0.7516  -0.6200 
18    C16      4.6833   -2.7473    5.1492 C.ar    1  LIG   0.8785   0.7200 
19    N3       4.2004   -3.3038    4.0211 N.ar    1  LIG  -0.7927  -0.6200 
20    N4       5.0240   -1.4092    5.1251 N.pl3   1  LIG  -0.9162  -0.9000 
21    Cl1      4.7463   -5.5156    7.7695 Cl      1  LIG  -0.1595  -0.1770 
22    N5       3.6380   -6.7407    5.2525 N.pl3   1  LIG  -0.7808  -0.9000 
23    C17      1.7200   -5.6067    0.2785 C.3     1  LIG   0.1439   0.2800 
24    O1       1.9889   -4.2184    0.4385 O.3     1  LIG  -0.6068  -0.6800 
25    H1       3.4030   -4.3079    2.0677 H       1  LIG   0.4363   0.4000 
26    H2       5.3905   -0.9730    5.9584 H       1  LIG   0.4223   0.4000 
27    H3       4.9042   -0.8807    4.2734 H       1  LIG   0.4208   0.4000 
28    H4       3.0401   -7.1874    4.5763 H       1  LIG   0.3764   0.4000 
29    H5       3.7238   -7.1962    6.1536 H       1  LIG   0.3795   0.4000 
30    H6       1.2027   -3.7382    0.1267 H       1  LIG   0.4055   0.4000 
31    H7       4.9827  -13.7399   -1.0333 H       1  LIG   0.1307   0.1500 
32    H8       3.0796  -12.5789   -2.1199 H       1  LIG   0.1301   0.1500 
33    H9       3.0548  -10.1168   -2.2836 H       1  LIG   0.1286   0.1500 
34    H10      6.8613   -9.9606   -0.2591 H       1  LIG   0.1317   0.1500 
35    H11      6.8692  -12.4247   -0.1049 H       1  LIG   0.1312   0.1500 
36    H12      4.3384   -8.0290   -2.2260 H       1  LIG   0.0483   0.0000 
37    H13      5.9619   -7.9895   -1.5644 H       1  LIG   0.0551   0.0000 
38    H14      5.0280   -8.0777    0.7895 H       1  LIG   0.0640   0.0000 
39    H15      2.2850   -8.0213   -0.6821 H       1  LIG   0.0549   0.0000 
40    H16      2.6208   -8.6651    0.9351 H       1  LIG   0.0598   0.0000 
41    H17      5.0239   -5.6553    0.4047 H       1  LIG   0.0591   0.0000 
42    H18      4.0497   -5.7999   -1.0703 H       1  LIG   0.0668   0.0000 
43    H19      2.1713   -6.7112    2.7736 H       1  LIG   0.0481   0.0000 
44    H20      3.9004   -7.0716    2.5906 H       1  LIG   0.0667   0.0000 
45    H21      1.5220   -5.7843   -0.7842 H       1  LIG   0.0283   0.0000 
46    H22      0.8163   -5.8594    0.8431 H       1  LIG   0.0320   0.0000 
@<TRIPOS>BOND
1     1     6     ar
2     1     2     ar
3     1     31    1
4     2     3     ar
5     2     32    1
6     3     4     ar
7     3     33    1
8     4     5     ar
9     4     7     1
10    5     6     ar
11    5     34    1
12    6     35    1
13    7     8     1
14    7     36    1
15    7     37    1
16    8     11    1
17    8     9     1
18    8     38    1
19    9     10    1
20    9     39    1
21    9     40    1
22    10    11    1
23    10    12    1
24    10    23    1
25    11    41    1
26    11    42    1
27    12    13    1
28    12    43    1
29    12    44    1
30    13    14    1
31    13    25    1
32    14    19    ar
33    14    15    ar
34    15    16    ar
35    15    22    1
36    16    17    ar
37    16    21    1
38    17    18    ar
39    18    19    ar
40    18    20    1
41    20    26    1
42    20    27    1
43    22    28    1
44    22    29    1
45    23    24    1
46    23    45    1
47    23    46    1
48    24    30    1
@<TRIPOS>SUBSTRUCTURE
1   LIG    1    
 
########## Number      : 887
########## Name        : ZINC00021270
########## Description : AM1BCC_CHARGES =  -0.0002 ORIGINAL_CHARGES =  -0.0000

@<TRIPOS>MOLECULE
ZINC00021270
44    46    1     0     0    
SMALL
USER_CHARGES
****
****
@<TRIPOS>ATOM
1     C1       6.4411  -12.6998   -0.2858 C.ar    1  LIG  -0.1318  -0.1500 
2     C2       5.6834  -12.0493   -1.2579 C.ar    1  LIG  -0.1277  -0.1500 
3     C3       4.5521  -11.3189   -0.8903 C.ar    1  LIG  -0.1275  -0.1500 
4     C4       4.1664  -11.2351    0.4544 C.ar    1  LIG  -0.0788  -0.1435 
5     C5       4.9384  -11.8898    1.4244 C.ar    1  LIG  -0.1290  -0.1500 
6     C6       6.0692  -12.6198    1.0548 C.ar    1  LIG  -0.1262  -0.1500 
7     C7       2.9557  -10.4315    0.8568 C.3     1  LIG  -0.0259   0.1435 
8     C8       3.3757   -9.0364    1.3019 C.3     1  LIG  -0.0805   0.0000 
9     C9       3.8297   -8.0327    0.2087 C.3     1  LIG  -0.0787   0.0000 
10    C10      3.0417   -6.9150    0.9614 C.3     1  LIG  -0.0917   0.0000 
11    C11      2.2095   -8.0645    1.6120 C.3     1  LIG  -0.0740   0.0000 
12    C12      3.9428   -6.1157    1.9268 C.3     1  LIG   0.2414   0.3691 
13    N1       3.1666   -5.3048    2.8448 N.pl3   1  LIG  -0.8765  -0.8691 
14    C13      3.6927   -4.5124    3.8441 C.ar    1  LIG   0.7444   0.4100 
15    C14      5.0463   -4.4594    4.1236 C.ar    1  LIG  -0.4877  -0.1500 
16    C15      5.4257   -3.6257    5.1521 C.ar    1  LIG   0.5904   0.4870 
17    N2       4.5803   -2.8800    5.8821 N.ar    1  LIG  -0.7872  -0.6200 
18    C16      3.2801   -2.9809    5.5570 C.ar    1  LIG   0.9136   0.7200 
19    N3       2.8143   -3.7719    4.5643 N.ar    1  LIG  -0.8238  -0.6200 
20    N4       2.3670   -2.2350    6.2769 N.pl3   1  LIG  -0.9298  -0.9000 
21    Cl1      7.0776   -3.4714    5.5959 Cl      1  LIG  -0.1592  -0.1770 
22    C17      2.2488   -6.0233    0.0015 C.3     1  LIG   0.1446   0.2800 
23    O1       1.2452   -5.3169    0.7220 O.3     1  LIG  -0.6080  -0.6800 
24    H1       2.1623   -5.2459    2.7092 H       1  LIG   0.4716   0.4000 
25    H2       2.6901   -1.6369    7.0232 H       1  LIG   0.4302   0.4000 
26    H3       1.3854   -2.2961    6.0493 H       1  LIG   0.4272   0.4000 
27    H4       0.7737   -4.7585    0.0803 H       1  LIG   0.4083   0.4000 
28    H5       7.3214  -13.2676   -0.5727 H       1  LIG   0.1315   0.1500 
29    H6       5.9739  -12.1096   -2.3028 H       1  LIG   0.1307   0.1500 
30    H7       3.9738  -10.8148   -1.6606 H       1  LIG   0.1291   0.1500 
31    H8       4.6628  -11.8334    2.4746 H       1  LIG   0.1316   0.1500 
32    H9       6.6605  -13.1247    1.8134 H       1  LIG   0.1317   0.1500 
33    H10      2.4342  -10.9476    1.6725 H       1  LIG   0.0558   0.0000 
34    H11      2.2441  -10.3836    0.0231 H       1  LIG   0.0479   0.0000 
35    H12      4.0834   -9.0818    2.1430 H       1  LIG   0.0642   0.0000 
36    H13      4.9120   -7.8908    0.1287 H       1  LIG   0.0580   0.0000 
37    H14      3.4437   -8.2634   -0.7921 H       1  LIG   0.0570   0.0000 
38    H15      1.2792   -8.2998    1.0797 H       1  LIG   0.0646   0.0000 
39    H16      1.9728   -7.9500    2.6741 H       1  LIG   0.0633   0.0000 
40    H17      4.5729   -6.8040    2.5027 H       1  LIG   0.0501   0.0000 
41    H18      4.6140   -5.4729    1.3435 H       1  LIG   0.0364   0.0000 
42    H19      5.7792   -5.0349    3.5725 H       1  LIG   0.1602   0.1500 
43    H20      2.9039   -5.2994   -0.4947 H       1  LIG   0.0296   0.0000 
44    H21      1.7456   -6.6162   -0.7700 H       1  LIG   0.0304   0.0000 
@<TRIPOS>BOND
1     1     6     ar
2     1     2     ar
3     1     28    1
4     2     3     ar
5     2     29    1
6     3     4     ar
7     3     30    1
8     4     5     ar
9     4     7     1
10    5     6     ar
11    5     31    1
12    6     32    1
13    7     8     1
14    7     33    1
15    7     34    1
16    8     11    1
17    8     9     1
18    8     35    1
19    9     10    1
20    9     36    1
21    9     37    1
22    10    11    1
23    10    12    1
24    10    22    1
25    11    38    1
26    11    39    1
27    12    13    1
28    12    40    1
29    12    41    1
30    13    14    1
31    13    24    1
32    14    19    ar
33    14    15    ar
34    15    16    ar
35    15    42    1
36    16    17    ar
37    16    21    1
38    17    18    ar
39    18    19    ar
40    18    20    1
41    20    25    1
42    20    26    1
43    22    23    1
44    22    43    1
45    22    44    1
46    23    27    1
@<TRIPOS>SUBSTRUCTURE
1   LIG    1    
 
########## Number      : 888
########## Name        : ZINC00021358
########## Description : AM1BCC_CHARGES =   0.0001 ORIGINAL_CHARGES =   0.0000

@<TRIPOS>MOLECULE
ZINC00021358
43    44    1     0     0    
SMALL
USER_CHARGES
****
****
@<TRIPOS>ATOM
1     C1      -6.5318    8.9809    2.2479 C.3     1  LIG  -0.0295   0.1810 
2     C2      -6.6525    7.6218    2.8388 C.2     1  LIG  -0.1133  -0.1810 
3     C3      -6.7295    7.3753    4.1894 C.2     1  LIG  -0.0796  -0.3016 
4     N1      -6.9470    6.0380    4.4101 N.am    1  LIG  -0.2568   0.2942 
5     C4      -6.8234    5.3686    3.1780 C.ar    1  LIG  -0.0101  -0.1516 
6     C5      -6.7245    6.3518    2.1740 C.ar    1  LIG  -0.0514   0.0000 
7     C6      -6.6855    5.9609    0.8035 C.ar    1  LIG  -0.1134  -0.1435 
8     C7      -6.8197    4.5849    0.5163 C.ar    1  LIG   0.1035   0.0825 
9     C8      -6.8523    3.6026    1.5145 C.ar    1  LIG  -0.0798  -0.1435 
10    C9      -6.7623    3.9774    2.8779 C.ar    1  LIG  -0.0401  -0.1435 
11    C10     -6.6005    2.9060    3.9289 C.3     1  LIG  -0.0536   0.1435 
12    C11     -6.9148    2.1430    1.1231 C.3     1  LIG  -0.0466   0.1435 
13    O1      -6.8907    4.1473   -0.7870 O.3     1  LIG  -0.5065  -0.5325 
14    C12     -6.5414    6.9451   -0.3313 C.3     1  LIG  -0.0549   0.1435 
15    C13     -7.3792    5.4682    5.6257 C.2     1  LIG   0.6782   0.5180 
16    O2      -8.2300    4.5874    5.5592 O.2     1  LIG  -0.5408  -0.5700 
17    C14     -6.8073    6.0018    6.9504 C.3     1  LIG  -0.1087   0.0610 
18    C15     -6.8793    4.8245    7.9570 C.3     1  LIG  -0.0891   0.0000 
19    C16     -5.3300    6.4196    6.8790 C.3     1  LIG  -0.0900   0.0000 
20    C17     -7.6878    7.1301    7.5036 C.3     1  LIG  -0.0926   0.0000 
21    H1      -7.1769    4.8752   -1.3612 H       1  LIG   0.4166   0.4500 
22    H2      -6.6693    9.7572    3.0087 H       1  LIG   0.0369   0.0000 
23    H3      -5.5396    9.1223    1.8088 H       1  LIG   0.0447   0.0000 
24    H4      -7.2941    9.1409    1.4793 H       1  LIG   0.0477   0.0000 
25    H5      -6.7431    8.0932    4.9941 H       1  LIG   0.1676   0.1500 
26    H6      -5.9332    2.1113    3.5787 H       1  LIG   0.0443   0.0000 
27    H7      -6.1262    3.2974    4.8328 H       1  LIG   0.0375   0.0000 
28    H8      -7.5703    2.4678    4.1814 H       1  LIG   0.0700   0.0000 
29    H9      -7.4012    1.9977    0.1532 H       1  LIG   0.0603   0.0000 
30    H10     -5.9040    1.7266    1.0730 H       1  LIG   0.0444   0.0000 
31    H11     -7.5097    1.5661    1.8386 H       1  LIG   0.0415   0.0000 
32    H12     -6.0177    7.8504   -0.0233 H       1  LIG   0.0554   0.0000 
33    H13     -5.9366    6.5281   -1.1436 H       1  LIG   0.0398   0.0000 
34    H14     -7.5279    7.2172   -0.7181 H       1  LIG   0.0419   0.0000 
35    H15     -6.4787    5.1094    8.9367 H       1  LIG   0.0423   0.0000 
36    H16     -7.9114    4.4885    8.1124 H       1  LIG   0.0609   0.0000 
37    H17     -6.3051    3.9626    7.5964 H       1  LIG   0.0449   0.0000 
38    H18     -4.9017    6.5315    7.8821 H       1  LIG   0.0437   0.0000 
39    H19     -4.7335    5.6719    6.3439 H       1  LIG   0.0513   0.0000 
40    H20     -5.1848    7.3803    6.3787 H       1  LIG   0.0435   0.0000 
41    H21     -7.3875    7.4011    8.5223 H       1  LIG   0.0485   0.0000 
42    H22     -7.6342    8.0393    6.9008 H       1  LIG   0.0370   0.0000 
43    H23     -8.7413    6.8285    7.5341 H       1  LIG   0.0545   0.0000 
@<TRIPOS>BOND
1     1     2     1
2     1     22    1
3     1     23    1
4     1     24    1
5     2     6     1
6     2     3     2
7     3     4     1
8     3     25    1
9     4     5     1
10    4     15    am
11    5     10    ar
12    5     6     ar
13    6     7     ar
14    7     8     ar
15    7     14    1
16    8     9     ar
17    8     13    1
18    9     10    ar
19    9     12    1
20    10    11    1
21    11    26    1
22    11    27    1
23    11    28    1
24    12    29    1
25    12    30    1
26    12    31    1
27    13    21    1
28    14    32    1
29    14    33    1
30    14    34    1
31    15    16    2
32    15    17    1
33    17    18    1
34    17    19    1
35    17    20    1
36    18    35    1
37    18    36    1
38    18    37    1
39    19    38    1
40    19    39    1
41    19    40    1
42    20    41    1
43    20    42    1
44    20    43    1
@<TRIPOS>SUBSTRUCTURE
1   LIG    1    
 
########## Number      : 889
########## Name        : ZINC00021359
########## Description : AM1BCC_CHARGES =  -0.0001 ORIGINAL_CHARGES =   0.0000

@<TRIPOS>MOLECULE
ZINC00021359
41    42    1     0     0    
SMALL
USER_CHARGES
****
****
@<TRIPOS>ATOM
1     C1      -3.0539    8.8783    3.2245 C.3     1  LIG  -0.0931   0.0000 
2     C2      -2.8193    7.3545    3.0443 C.3     1  LIG   0.0022   0.1435 
3     C3      -2.5905    6.7934    4.4665 C.3     1  LIG  -0.0877   0.0000 
4     C4      -4.1286    6.7848    2.4556 C.3     1  LIG  -0.0862   0.0000 
5     C5      -1.6203    7.0165    2.1228 C.ar    1  LIG  -0.0438  -0.1435 
6     C6      -0.9263    8.0352    1.4622 C.ar    1  LIG  -0.1156  -0.1500 
7     C7       0.1226    7.7046    0.6268 C.ar    1  LIG   0.0753   0.0825 
8     C8       0.5627    6.4011    0.4333 C.ar    1  LIG  -0.1350  -0.1435 
9     C9      -0.0494    5.3203    1.0803 C.ar    1  LIG  -0.0558  -0.1435 
10    C10     -1.1836    5.6751    1.8799 C.ar    1  LIG   0.0855   0.0825 
11    O1      -1.9589    4.6891    2.4373 O.3     1  LIG  -0.5121  -0.5325 
12    C11      0.4387    3.8534    0.9212 C.3     1  LIG  -0.0072   0.1435 
13    C12      1.9363    3.7132    0.5450 C.3     1  LIG  -0.0897   0.0000 
14    C13      0.3059    3.0210    2.2263 C.3     1  LIG  -0.0919   0.0000 
15    C14     -0.3754    3.1792   -0.2024 C.3     1  LIG  -0.0881   0.0000 
16    C15      1.6767    6.4928   -0.5383 C.3     1  LIG  -0.1080   0.2045 
17    C16      1.7321    7.9713   -0.8392 C.2     1  LIG   0.7101   0.6590 
18    O2       2.5049    8.4935   -1.6307 O.2     1  LIG  -0.5459  -0.5700 
19    O3       0.8028    8.6743   -0.0942 O.3     1  LIG  -0.3236  -0.2325 
20    H1      -2.1377    4.0301    1.7475 H       1  LIG   0.4179   0.4500 
21    H2      -3.2985    9.3667    2.2739 H       1  LIG   0.0372   0.0000 
22    H3      -3.8933    9.0723    3.9035 H       1  LIG   0.0395   0.0000 
23    H4      -2.1744    9.3744    3.6518 H       1  LIG   0.0392   0.0000 
24    H5      -2.5746    5.7008    4.4995 H       1  LIG   0.0594   0.0000 
25    H6      -1.6396    7.1493    4.8804 H       1  LIG   0.0362   0.0000 
26    H7      -3.3889    7.1102    5.1483 H       1  LIG   0.0329   0.0000 
27    H8      -4.1411    5.6920    2.4209 H       1  LIG   0.0462   0.0000 
28    H9      -4.9948    7.0874    3.0561 H       1  LIG   0.0366   0.0000 
29    H10     -4.2901    7.1471    1.4334 H       1  LIG   0.0345   0.0000 
30    H11     -1.1901    9.0821    1.5581 H       1  LIG   0.1649   0.1500 
31    H12      2.2658    2.6675    0.5937 H       1  LIG   0.0416   0.0000 
32    H13      2.1390    4.0207   -0.4840 H       1  LIG   0.0335   0.0000 
33    H14      2.5755    4.2852    1.2267 H       1  LIG   0.0441   0.0000 
34    H15      0.8609    2.0770    2.1590 H       1  LIG   0.0385   0.0000 
35    H16      0.6996    3.5716    3.0884 H       1  LIG   0.0585   0.0000 
36    H17     -0.7208    2.7201    2.4469 H       1  LIG   0.0345   0.0000 
37    H18     -0.0552    2.1417   -0.3536 H       1  LIG   0.0441   0.0000 
38    H19     -1.4479    3.1598    0.0135 H       1  LIG   0.0278   0.0000 
39    H20     -0.2481    3.7076   -1.1548 H       1  LIG   0.0413   0.0000 
40    H21      2.6346    6.2111   -0.0963 H       1  LIG   0.1027   0.0000 
41    H22      1.4507    5.9526   -1.4608 H       1  LIG   0.0994   0.0000 
@<TRIPOS>BOND
1     1     2     1
2     1     21    1
3     1     22    1
4     1     23    1
5     2     3     1
6     2     4     1
7     2     5     1
8     3     24    1
9     3     25    1
10    3     26    1
11    4     27    1
12    4     28    1
13    4     29    1
14    5     10    ar
15    5     6     ar
16    6     7     ar
17    6     30    1
18    7     19    1
19    7     8     ar
20    8     9     ar
21    8     16    1
22    9     10    ar
23    9     12    1
24    10    11    1
25    11    20    1
26    12    13    1
27    12    14    1
28    12    15    1
29    13    31    1
30    13    32    1
31    13    33    1
32    14    34    1
33    14    35    1
34    14    36    1
35    15    37    1
36    15    38    1
37    15    39    1
38    16    17    1
39    16    40    1
40    16    41    1
41    17    18    2
42    17    19    1
@<TRIPOS>SUBSTRUCTURE
1   LIG    1    
 
########## Number      : 890
########## Name        : ZINC00021489
########## Description : AM1BCC_CHARGES =   0.0000 ORIGINAL_CHARGES =  -0.0000

@<TRIPOS>MOLECULE
ZINC00021489
26    28    1     0     0    
SMALL
USER_CHARGES
****
****
@<TRIPOS>ATOM
1     C1       5.9268   -9.1262   -1.4107 C.ar    1  LIG  -0.1309  -0.1500 
2     C2       4.8378   -9.8088   -0.8796 C.ar    1  LIG  -0.1220  -0.1500 
3     C3       3.8316   -9.1270   -0.1901 C.ar    1  LIG  -0.0903  -0.1500 
4     C4       3.9495   -7.7350   -0.0473 C.ar    1  LIG  -0.0882   0.0400 
5     C5       5.0322   -7.0297   -0.5708 C.ar    1  LIG   0.0894   0.2272 
6     C6       6.0354   -7.7403   -1.2638 C.ar    1  LIG  -0.0764  -0.1500 
7     N1       5.0044   -5.6627   -0.3481 N.2     1  LIG  -0.5306  -0.5653 
8     C7       3.9332   -5.3190    0.3391 C.2     1  LIG   0.4435   0.3251 
9     S1       2.8895   -6.6311    0.7350 S.3     1  LIG  -0.0581  -0.0800 
10    C8       3.6153   -3.9303    0.7191 C.ar    1  LIG  -0.1819   0.0530 
11    C9       2.7380   -3.6038    1.7620 C.ar    1  LIG  -0.0537  -0.1500 
12    C10      2.4735   -2.2678    2.0889 C.ar    1  LIG  -0.2104  -0.1500 
13    C11      3.0694   -1.2159    1.3852 C.ar    1  LIG   0.2197   0.1000 
14    C12      3.9608   -1.5401    0.3552 C.ar    1  LIG  -0.1185   0.1110 
15    C13      4.2291   -2.8757    0.0244 C.ar    1  LIG  -0.0079  -0.1500 
16    Br1      4.8425   -0.1828   -0.6436 Br      1  LIG  -0.0909  -0.1110 
17    N2       2.8052    0.0951    1.7549 N.pl3   1  LIG  -0.8450  -0.9000 
18    H1       2.1144    0.3008    2.4641 H       1  LIG   0.4161   0.4000 
19    H2       3.1964    0.8575    1.2169 H       1  LIG   0.4266   0.4000 
20    H3       6.7000   -9.6725   -1.9443 H       1  LIG   0.1359   0.1500 
21    H4       4.7665  -10.8867   -1.0018 H       1  LIG   0.1352   0.1500 
22    H5       2.9833   -9.6651    0.2219 H       1  LIG   0.1388   0.1500 
23    H6       6.8885   -7.2134   -1.6813 H       1  LIG   0.1514   0.1500 
24    H7       2.2484   -4.3725    2.3547 H       1  LIG   0.1408   0.1500 
25    H8       1.7905   -2.0572    2.9095 H       1  LIG   0.1396   0.1500 
26    H9       4.9223   -3.0946   -0.7866 H       1  LIG   0.1678   0.1500 
@<TRIPOS>BOND
1     1     6     ar
2     1     2     ar
3     1     20    1
4     2     3     ar
5     2     21    1
6     3     4     ar
7     3     22    1
8     4     9     1
9     4     5     ar
10    5     6     ar
11    5     7     1
12    6     23    1
13    7     8     2
14    8     9     1
15    8     10    1
16    10    15    ar
17    10    11    ar
18    11    12    ar
19    11    24    1
20    12    13    ar
21    12    25    1
22    13    14    ar
23    13    17    1
24    14    15    ar
25    14    16    1
26    15    26    1
27    17    18    1
28    17    19    1
@<TRIPOS>SUBSTRUCTURE
1   LIG    1    
 
########## Number      : 891
########## Name        : ZINC00021490
########## Description : AM1BCC_CHARGES =   0.0001 ORIGINAL_CHARGES =  -0.0000

@<TRIPOS>MOLECULE
ZINC00021490
26    28    1     0     0    
SMALL
USER_CHARGES
****
****
@<TRIPOS>ATOM
1     C1       0.7525   -6.6362    3.5058 C.ar    1  LIG  -0.1309  -0.1500 
2     C2       1.8241   -7.4289    3.9023 C.ar    1  LIG  -0.1217  -0.1500 
3     C3       3.0647   -7.3268    3.2670 C.ar    1  LIG  -0.0903  -0.1500 
4     C4       3.2002   -6.4034    2.2179 C.ar    1  LIG  -0.0885   0.0400 
5     C5       2.1399   -5.5986    1.8030 C.ar    1  LIG   0.0890   0.2272 
6     C6       0.8971   -5.7194    2.4605 C.ar    1  LIG  -0.0763  -0.1500 
7     N1       2.4313   -4.7382    0.7571 N.2     1  LIG  -0.5298  -0.5653 
8     C7       3.6819   -4.8799    0.3648 C.2     1  LIG   0.4415   0.3251 
9     S1       4.5799   -6.0489    1.2561 S.3     1  LIG  -0.0557  -0.0800 
10    C8       4.2933   -4.0912   -0.7206 C.ar    1  LIG  -0.1697   0.0530 
11    C9       5.4494   -4.4946   -1.4028 C.ar    1  LIG  -0.0665  -0.1500 
12    C10      5.9885   -3.7126   -2.4322 C.ar    1  LIG  -0.1997  -0.1500 
13    C11      5.3966   -2.5033   -2.8103 C.ar    1  LIG   0.1906   0.1000 
14    C12      4.2307   -2.1073   -2.1429 C.ar    1  LIG  -0.0691   0.1770 
15    C13      3.6877   -2.8866   -1.1126 C.ar    1  LIG  -0.0301  -0.1500 
16    Cl1      3.4223   -0.6365   -2.5655 Cl      1  LIG  -0.0977  -0.1770 
17    N2       5.9394   -1.7651   -3.8527 N.pl3   1  LIG  -0.8336  -0.9000 
18    H1       6.8127   -2.0425   -4.2802 H       1  LIG   0.4093   0.4000 
19    H2       5.5390   -0.8675   -4.0937 H       1  LIG   0.4183   0.4000 
20    H3      -0.2051   -6.7286    4.0112 H       1  LIG   0.1360   0.1500 
21    H4       1.6971   -8.1374    4.7170 H       1  LIG   0.1353   0.1500 
22    H5       3.8980   -7.9478    3.5813 H       1  LIG   0.1388   0.1500 
23    H6       0.0561   -5.1032    2.1561 H       1  LIG   0.1513   0.1500 
24    H7       5.9535   -5.4279   -1.1644 H       1  LIG   0.1407   0.1500 
25    H8       6.8839   -4.0644   -2.9408 H       1  LIG   0.1401   0.1500 
26    H9       2.7836   -2.5453   -0.6102 H       1  LIG   0.1688   0.1500 
@<TRIPOS>BOND
1     1     6     ar
2     1     2     ar
3     1     20    1
4     2     3     ar
5     2     21    1
6     3     4     ar
7     3     22    1
8     4     9     1
9     4     5     ar
10    5     6     ar
11    5     7     1
12    6     23    1
13    7     8     2
14    8     9     1
15    8     10    1
16    10    15    ar
17    10    11    ar
18    11    12    ar
19    11    24    1
20    12    13    ar
21    12    25    1
22    13    14    ar
23    13    17    1
24    14    15    ar
25    14    16    1
26    15    26    1
27    17    18    1
28    17    19    1
@<TRIPOS>SUBSTRUCTURE
1   LIG    1    
 
########## Number      : 892
########## Name        : ZINC00021557
########## Description : AM1BCC_CHARGES =   1.0000 ORIGINAL_CHARGES =   1.0000

@<TRIPOS>MOLECULE
ZINC00021557
32    33    1     0     0    
SMALL
USER_CHARGES
****
****
@<TRIPOS>ATOM
1     C1       4.2531   -9.7321    2.1839 C.2     1  LIG  -0.2149  -0.1500 
2     C2       5.3022   -8.7989    2.3604 C.2     1  LIG  -0.0729  -0.1500 
3     C3       4.9087   -7.5896    1.8084 C.2     1  LIG  -0.2636  -0.2366 
4     N1       3.6325   -7.7848    1.3220 N.pl3   1  LIG  -0.1540   0.0332 
5     C4       3.2324   -9.0767    1.5379 C.2     1  LIG  -0.0936  -0.3016 
6     C5       5.6624   -6.3506    1.7739 C.2     1  LIG   0.6269   0.5688 
7     O1       6.7036   -6.1733    2.4025 O.2     1  LIG  -0.5782  -0.5700 
8     C6       5.1605   -5.2114    0.9664 C.ar    1  LIG  -0.1721   0.0862 
9     C7       4.9598   -5.4209   -0.4062 C.ar    1  LIG  -0.0923  -0.1500 
10    C8       4.4969   -4.3758   -1.1990 C.ar    1  LIG   0.0083   0.1770 
11    C9       4.2440   -3.1281   -0.6373 C.ar    1  LIG  -0.0843  -0.1500 
12    C10      4.4618   -2.9155    0.7289 C.ar    1  LIG  -0.1328  -0.1500 
13    C11      4.9290   -3.9475    1.5528 C.ar    1  LIG   0.0620   0.1170 
14    N2       5.1739   -3.7752    2.9411 N.am    1  LIG  -0.4220  -0.5470 
15    C12      4.9802   -2.6311    3.7061 C.2     1  LIG   0.6521   0.5690 
16    O2       4.5336   -1.5492    3.3382 O.2     1  LIG  -0.6030  -0.5700 
17    C13      5.3974   -2.8622    5.1446 C.3     1  LIG   0.0005   0.5640 
18    Cl1      4.2391   -4.6261   -2.8822 Cl      1  LIG  -0.0427  -0.1770 
19    H1       3.0641   -7.0788    0.8746 H       1  LIG   0.3048   0.2700 
20    H2       5.5488   -4.5907    3.4212 H       1  LIG   0.3663   0.3700 
21    H3       5.5174   -1.7857    6.9380 H       1  LIG   0.4677   0.4500 
22    H4       5.8125   -0.8618    5.5888 H       1  LIG   0.4671   0.4500 
23    H5       4.2421  -10.7669    2.4968 H       1  LIG   0.1722   0.1500 
24    H6       6.2543   -8.9874    2.8389 H       1  LIG   0.1728   0.1500 
25    H7       2.2563   -9.4126    1.2163 H       1  LIG   0.1825   0.1500 
26    H8       5.1713   -6.3892   -0.8542 H       1  LIG   0.1728   0.1500 
27    H9       3.8830   -2.3057   -1.2503 H       1  LIG   0.1695   0.1500 
28    H10      4.2581   -1.9200    1.1069 H       1  LIG   0.1726   0.1500 
29    H11      4.7712   -3.6326    5.6029 H       1  LIG   0.1350   0.0000 
30    H12      6.4523   -3.1455    5.1966 H       1  LIG   0.1328   0.0000 
31    N3       5.2388   -1.6310    5.9604 N.4     1  LIG  -0.8280  -0.8530 
32    H13      4.2619   -1.3076    5.9597 H       1  LIG   0.4885   0.4500 
@<TRIPOS>BOND
1     1     5     2
2     1     2     1
3     1     23    1
4     2     3     2
5     2     24    1
6     3     4     1
7     3     6     1
8     4     5     1
9     4     19    1
10    5     25    1
11    6     7     2
12    6     8     1
13    8     13    ar
14    8     9     ar
15    9     10    ar
16    9     26    1
17    10    11    ar
18    10    18    1
19    11    12    ar
20    11    27    1
21    12    13    ar
22    12    28    1
23    13    14    1
24    14    15    am
25    14    20    1
26    15    16    2
27    15    17    1
28    17    29    1
29    17    30    1
30    17    31    1
31    21    31    1
32    22    31    1
33    31    32    1
@<TRIPOS>SUBSTRUCTURE
1   LIG    1    
 
########## Number      : 893
########## Name        : ZINC00021789
########## Description : AM1BCC_CHARGES =  -0.0001 ORIGINAL_CHARGES =   0.0000

@<TRIPOS>MOLECULE
ZINC00021789
21    21    1     0     0    
SMALL
USER_CHARGES
****
****
@<TRIPOS>ATOM
1     C1       6.3806   -0.8883    3.9105 C.3     1  LIG   0.1279   0.2800 
2     O1       5.6558   -2.0775    3.5814 O.3     1  LIG  -0.4408  -0.4300 
3     C2       6.3345   -2.9830    2.8323 C.2     1  LIG   0.6477   0.6338 
4     O2       7.4808   -2.8707    2.4266 O.2     1  LIG  -0.5407  -0.5700 
5     C3       5.4842   -4.1698    2.5553 C.ar    1  LIG  -0.0993   0.0862 
6     C4       4.1695   -4.2773    3.0317 C.ar    1  LIG  -0.1421  -0.1500 
7     C5       3.4210   -5.4182    2.7375 C.ar    1  LIG   0.0476   0.0825 
8     C6       3.9673   -6.4490    1.9764 C.ar    1  LIG   0.1194   0.0825 
9     C7       5.2712   -6.3434    1.5034 C.ar    1  LIG   0.1083   0.0825 
10    C8       6.0338   -5.2088    1.7885 C.ar    1  LIG  -0.1582  -0.1500 
11    O3       5.7965   -7.3618    0.7572 O.3     1  LIG  -0.4693  -0.5325 
12    O4       3.2322   -7.5655    1.6896 O.3     1  LIG  -0.4643  -0.5325 
13    O5       2.1364   -5.5495    3.1893 O.3     1  LIG  -0.5131  -0.5325 
14    H1       6.7076   -7.1317    0.5085 H       1  LIG   0.4219   0.4500 
15    H2       2.3583   -7.4508    2.1038 H       1  LIG   0.4384   0.4500 
16    H3       1.9024   -4.7554    3.7000 H       1  LIG   0.4351   0.4500 
17    H4       5.7282   -0.2480    4.5102 H       1  LIG   0.0620   0.0000 
18    H5       7.2679   -1.1359    4.5011 H       1  LIG   0.0474   0.0000 
19    H6       6.6595   -0.3497    2.9997 H       1  LIG   0.0478   0.0000 
20    H7       3.7217   -3.4868    3.6271 H       1  LIG   0.1603   0.1500 
21    H8       7.0518   -5.1373    1.4135 H       1  LIG   0.1639   0.1500 
@<TRIPOS>BOND
1     1     2     1
2     1     17    1
3     1     18    1
4     1     19    1
5     2     3     1
6     3     4     2
7     3     5     1
8     5     10    ar
9     5     6     ar
10    6     7     ar
11    6     20    1
12    7     8     ar
13    7     13    1
14    8     9     ar
15    8     12    1
16    9     10    ar
17    9     11    1
18    10    21    1
19    11    14    1
20    12    15    1
21    13    16    1
@<TRIPOS>SUBSTRUCTURE
1   LIG    1    
 
########## Number      : 894
########## Name        : ZINC00021790
########## Description : AM1BCC_CHARGES =  -0.0001 ORIGINAL_CHARGES =   0.0000

@<TRIPOS>MOLECULE
ZINC00021790
24    24    1     0     0    
SMALL
USER_CHARGES
****
****
@<TRIPOS>ATOM
1     C1       6.3256   -7.7122    0.9143 C.3     1  LIG  -0.1253   0.0000 
2     C2       5.8404   -7.1045   -0.3876 C.3     1  LIG   0.1390   0.2800 
3     O1       4.7107   -6.2498   -0.1402 O.3     1  LIG  -0.4452  -0.4300 
4     C3       3.4855   -6.8333   -0.1312 C.2     1  LIG   0.6499   0.6338 
5     O2       3.2445   -8.0168   -0.3097 O.2     1  LIG  -0.5371  -0.5700 
6     C4       2.4328   -5.8189    0.1348 C.ar    1  LIG  -0.0986   0.0862 
7     C5       2.7335   -4.4659    0.3567 C.ar    1  LIG  -0.1514  -0.1500 
8     C6       1.7000   -3.5598    0.6024 C.ar    1  LIG   0.0650   0.0825 
9     C7       0.3767   -3.9885    0.6288 C.ar    1  LIG   0.0517   0.0825 
10    C8       0.0796   -5.3288    0.4093 C.ar    1  LIG   0.1197   0.0825 
11    C9       1.0975   -6.2480    0.1625 C.ar    1  LIG  -0.1045  -0.1500 
12    O3      -1.2111   -5.7773    0.4297 O.3     1  LIG  -0.4861  -0.5325 
13    O4      -0.6447   -3.1125    0.8681 O.3     1  LIG  -0.5079  -0.5325 
14    O5       1.9633   -2.2359    0.8219 O.3     1  LIG  -0.5144  -0.5325 
15    H1      -1.7803   -5.0084    0.6140 H       1  LIG   0.4411   0.4500 
16    H2      -0.2448   -2.2331    0.9960 H       1  LIG   0.4510   0.4500 
17    H3       2.9247   -2.0966    0.7714 H       1  LIG   0.4359   0.4500 
18    H4       7.2175   -8.3231    0.7490 H       1  LIG   0.0471   0.0000 
19    H5       6.5638   -6.9274    1.6398 H       1  LIG   0.0442   0.0000 
20    H6       5.5509   -8.3394    1.3668 H       1  LIG   0.0565   0.0000 
21    H7       6.6269   -6.4798   -0.8229 H       1  LIG   0.0627   0.0000 
22    H8       5.5931   -7.8785   -1.1229 H       1  LIG   0.0658   0.0000 
23    H9       3.7596   -4.1095    0.3412 H       1  LIG   0.1612   0.1500 
24    H10      0.8415   -7.2912   -0.0064 H       1  LIG   0.1796   0.1500 
@<TRIPOS>BOND
1     1     2     1
2     1     18    1
3     1     19    1
4     1     20    1
5     2     3     1
6     2     21    1
7     2     22    1
8     3     4     1
9     4     5     2
10    4     6     1
11    6     11    ar
12    6     7     ar
13    7     8     ar
14    7     23    1
15    8     9     ar
16    8     14    1
17    9     10    ar
18    9     13    1
19    10    11    ar
20    10    12    1
21    11    24    1
22    12    15    1
23    13    16    1
24    14    17    1
@<TRIPOS>SUBSTRUCTURE
1   LIG    1    
 
########## Number      : 895
########## Name        : ZINC00022210
########## Description : AM1BCC_CHARGES =  -1.0000 ORIGINAL_CHARGES =  -1.0000

@<TRIPOS>MOLECULE
ZINC00022210
45    45    1     0     0    
SMALL
USER_CHARGES
****
****
@<TRIPOS>ATOM
1     C1       2.5720   -3.6942    0.4534 C.3     1  LIG  -0.0578   0.1382 
2     C2       3.4875   -3.0585    1.4610 C.2     1  LIG  -0.1359  -0.2764 
3     C3       3.7946   -3.5680    2.6695 C.2     1  LIG  -0.1476  -0.2882 
4     C4       3.3028   -4.8448    3.2939 C.3     1  LIG   0.0056   0.2817 
5     C5       4.4199   -5.8412    3.5192 C.ar    1  LIG  -0.0996  -0.1435 
6     C6       5.0894   -5.8528    4.7545 C.ar    1  LIG  -0.1095  -0.1500 
7     C7       6.1430   -6.7416    5.0005 C.ar    1  LIG  -0.0253   0.0284 
8     C8       6.5122   -7.6417    3.9909 C.ar    1  LIG  -0.1080  -0.1500 
9     C9       5.8744   -7.6470    2.7370 C.ar    1  LIG  -0.1559  -0.1435 
10    C10      4.8243   -6.7398    2.5174 C.ar    1  LIG   0.1021   0.0825 
11    O1       4.1489   -6.6945    1.3254 O.3     1  LIG  -0.5188  -0.5325 
12    C11      6.3394   -8.6405    1.6930 C.3     1  LIG  -0.0046   0.2817 
13    C12      5.4409   -9.8435    1.6056 C.2     1  LIG  -0.1564  -0.2882 
14    C13      4.7982  -10.3281    0.5254 C.2     1  LIG  -0.1456  -0.2764 
15    C14      4.8576   -9.7498   -0.8602 C.3     1  LIG  -0.0615   0.1382 
16    C15      3.9310  -11.5542    0.6444 C.3     1  LIG  -0.0559   0.1382 
17    C16      6.8422   -6.8074    6.2950 C.2     1  LIG  -0.1848  -0.1784 
18    C17      7.0546   -5.7551    7.0989 C.2     1  LIG  -0.1595  -0.4000 
19    C18      7.8026   -5.8979    8.4316 C.2     1  LIG   0.8900   1.0500 
20    O2       8.2021   -7.0544    8.7434 O.co2   1  LIG  -0.8317  -0.9000 
21    C19      4.0814   -1.7482    1.0150 C.3     1  LIG  -0.0523   0.1382 
22    H1       4.4536   -7.4080    0.7445 H       1  LIG   0.4150   0.4500 
23    H2       1.7341   -3.0243    0.2329 H       1  LIG   0.0305   0.0000 
24    H3       3.1147   -3.8837   -0.4788 H       1  LIG   0.0251   0.0000 
25    H4       2.1495   -4.6457    0.7807 H       1  LIG   0.0604   0.0000 
26    H5       4.4735   -2.9972    3.3033 H       1  LIG   0.1245   0.1500 
27    H6       2.8416   -4.5948    4.2587 H       1  LIG   0.0497   0.0000 
28    H7       2.4983   -5.3195    2.7249 H       1  LIG   0.0575   0.0000 
29    H8       4.7685   -5.1610    5.5310 H       1  LIG   0.1425   0.1500 
30    H9       7.3200   -8.3488    4.1770 H       1  LIG   0.1328   0.1500 
31    H10      6.4640   -8.1186    0.7402 H       1  LIG   0.0447   0.0000 
32    H11      7.3469   -8.9943    1.9486 H       1  LIG   0.0621   0.0000 
33    H12      5.3182  -10.3766    2.5488 H       1  LIG   0.1307   0.1500 
34    H13      5.2107  -10.5073   -1.5681 H       1  LIG   0.0364   0.0000 
35    H14      3.8599   -9.4249   -1.1737 H       1  LIG   0.0391   0.0000 
36    H15      5.5251   -8.8910   -0.9500 H       1  LIG   0.0430   0.0000 
37    H16      2.9020  -11.3195    0.3528 H       1  LIG   0.0356   0.0000 
38    H17      4.3057  -12.3485   -0.0095 H       1  LIG   0.0345   0.0000 
39    H18      3.9039  -11.9500    1.6651 H       1  LIG   0.0405   0.0000 
40    H19      7.2141   -7.7911    6.5723 H       1  LIG   0.1435   0.1500 
41    H20      6.7086   -4.7632    6.8141 H       1  LIG   0.0986   0.1500 
42    H21      4.7450   -1.3116    1.7689 H       1  LIG   0.0380   0.0000 
43    H22      4.6664   -1.8892    0.1002 H       1  LIG   0.0338   0.0000 
44    H23      3.2873   -1.0220    0.8120 H       1  LIG   0.0284   0.0000 
45    O3       7.9280   -4.8106    9.0682 O.co2   1  LIG  -0.8339  -0.9000 
@<TRIPOS>BOND
1     1     2     1
2     1     23    1
3     1     24    1
4     1     25    1
5     2     3     2
6     2     21    1
7     3     4     1
8     3     26    1
9     4     5     1
10    4     27    1
11    4     28    1
12    5     10    ar
13    5     6     ar
14    6     7     ar
15    6     29    1
16    7     8     ar
17    7     17    1
18    8     9     ar
19    8     30    1
20    9     10    ar
21    9     12    1
22    10    11    1
23    11    22    1
24    12    13    1
25    12    31    1
26    12    32    1
27    13    14    2
28    13    33    1
29    14    15    1
30    14    16    1
31    15    34    1
32    15    35    1
33    15    36    1
34    16    37    1
35    16    38    1
36    16    39    1
37    17    18    2
38    17    40    1
39    18    19    1
40    18    41    1
41    19    20    2
42    19    45    1
43    21    42    1
44    21    43    1
45    21    44    1
@<TRIPOS>SUBSTRUCTURE
1   LIG    1    
 
########## Number      : 896
########## Name        : ZINC00022273
########## Description : AM1BCC_CHARGES =  -1.0001 ORIGINAL_CHARGES =  -1.0000

@<TRIPOS>MOLECULE
ZINC00022273
22    22    1     0     0    
SMALL
USER_CHARGES
****
****
@<TRIPOS>ATOM
1     C1       5.2906   -6.4500   -2.3078 C.ar    1  LIG  -0.1609  -0.1500 
2     C2       4.8135   -5.1533   -2.1032 C.ar    1  LIG  -0.0535  -0.1500 
3     C3       3.7863   -4.9150   -1.1794 C.ar    1  LIG  -0.1524   0.0862 
4     C4       3.2192   -5.9835   -0.4748 C.ar    1  LIG  -0.0274  -0.1500 
5     C5       3.7088   -7.2771   -0.6927 C.ar    1  LIG  -0.1919   0.1330 
6     C6       4.7427   -7.5198   -1.6019 C.ar    1  LIG  -0.0689  -0.1500 
7     N1       3.1248   -8.3957    0.0382 N.pl3   1  LIG   0.3123   0.9070 
8     O1       2.5654   -8.1490    1.1152 O.2     1  LIG  -0.1973  -0.5200 
9     O2       3.2247   -9.5242   -0.4625 O.3     1  LIG  -0.2380  -0.5200 
10    C7       3.3043   -3.5214   -1.0128 C.2     1  LIG   0.5795   0.4694 
11    O3       3.3353   -2.7507   -1.9660 O.2     1  LIG  -0.5776  -0.5700 
12    C8       2.8294   -3.1107    0.3373 C.2     1  LIG  -0.3244  -0.1356 
13    C9       2.2434   -1.9180    0.5049 C.2     1  LIG  -0.0743  -0.4000 
14    C10      1.7515   -1.4594    1.8832 C.2     1  LIG   0.8824   1.0500 
15    O4       1.9160   -2.2617    2.8442 O.co2   1  LIG  -0.8150  -0.9000 
16    H1       6.0923   -6.6244   -3.0203 H       1  LIG   0.1379   0.1500 
17    H2       5.2579   -4.3352   -2.6655 H       1  LIG   0.1591   0.1500 
18    H3       2.3939   -5.8150    0.2116 H       1  LIG   0.1926   0.1500 
19    H4       5.1337   -8.5189   -1.7745 H       1  LIG   0.1591   0.1500 
20    H5       2.9837   -3.7867    1.1704 H       1  LIG   0.1539   0.1500 
21    H6       2.1034   -1.2493   -0.3427 H       1  LIG   0.1202   0.1500 
22    O5       1.2285   -0.3066    1.8848 O.co2   1  LIG  -0.8155  -0.9000 
@<TRIPOS>BOND
1     1     6     ar
2     1     2     ar
3     1     16    1
4     2     3     ar
5     2     17    1
6     3     4     ar
7     3     10    1
8     4     5     ar
9     4     18    1
10    5     6     ar
11    5     7     1
12    6     19    1
13    7     8     2
14    7     9     1
15    10    11    2
16    10    12    1
17    12    13    2
18    12    20    1
19    13    14    1
20    13    21    1
21    14    15    2
22    14    22    1
@<TRIPOS>SUBSTRUCTURE
1   LIG    1    
 
########## Number      : 897
########## Name        : ZINC00022418
########## Description : AM1BCC_CHARGES =   0.0003 ORIGINAL_CHARGES =  -0.0000

@<TRIPOS>MOLECULE
ZINC00022418
38    40    1     0     0    
SMALL
USER_CHARGES
****
****
@<TRIPOS>ATOM
1     C1       0.4092   -5.1543   -7.5722 C.ar    1  LIG  -0.0975  -0.1500 
2     C2      -0.8649   -4.9211   -7.0643 C.ar    1  LIG  -0.2302  -0.1500 
3     C3      -1.0063   -4.7882   -5.6919 C.ar    1  LIG   0.3906   0.1600 
4     N1       0.0191   -4.8668   -4.8153 N.ar    1  LIG  -0.6443  -0.6200 
5     C4       1.2465   -5.0774   -5.3477 C.ar    1  LIG   0.3630   0.3962 
6     C5       1.4926   -5.2430   -6.7046 C.ar    1  LIG  -0.2012  -0.1500 
7     C6       2.3569   -5.2191   -4.3863 C.2     1  LIG   0.5805   0.5438 
8     O1       3.0703   -6.2150   -4.5104 O.2     1  LIG  -0.5996  -0.5700 
9     N2       2.5260   -4.2432   -3.4002 N.am    1  LIG  -0.4618  -0.6602 
10    C7       1.8211   -2.9551   -3.3350 C.3     1  LIG   0.0876   0.3001 
11    C8       2.8097   -1.8017   -3.1685 C.3     1  LIG   0.0719   0.3001 
12    N3       3.7453   -2.0435   -2.0693 N.am    1  LIG  -0.4618  -0.6602 
13    C9       4.4503   -3.3316   -2.1345 C.3     1  LIG   0.0873   0.3001 
14    C10      3.4617   -4.4850   -2.3010 C.3     1  LIG   0.0718   0.3001 
15    C11      3.9144   -1.0676   -1.0832 C.2     1  LIG   0.5804   0.5438 
16    O2       3.2011   -0.0717   -0.9591 O.2     1  LIG  -0.5997  -0.5700 
17    C12      5.0249   -1.2093   -0.1218 C.ar    1  LIG   0.3629   0.3962 
18    C13      4.7788   -1.0437    1.2351 C.ar    1  LIG  -0.2013  -0.1500 
19    C14      5.8622   -1.1324    2.1027 C.ar    1  LIG  -0.0974  -0.1500 
20    C15      7.1363   -1.3656    1.5947 C.ar    1  LIG  -0.2303  -0.1500 
21    C16      7.2777   -1.4985    0.2223 C.ar    1  LIG   0.3906   0.1600 
22    N4       6.2522   -1.4199   -0.6542 N.ar    1  LIG  -0.6442  -0.6200 
23    H1       0.5564   -5.2710   -8.6419 H       1  LIG   0.1450   0.1500 
24    H2      -1.7232   -4.8501   -7.7228 H       1  LIG   0.1479   0.1500 
25    H3      -1.9807   -4.6110   -5.2480 H       1  LIG   0.0279   0.1500 
26    H4       2.4900   -5.4330   -7.0861 H       1  LIG   0.1605   0.1500 
27    H5       1.2279   -2.7726   -4.2330 H       1  LIG   0.0654   0.0000 
28    H6       1.1415   -3.0046   -2.4764 H       1  LIG   0.0571   0.0000 
29    H7       3.4152   -1.6944   -4.0769 H       1  LIG   0.0461   0.0000 
30    H8       2.2670   -0.8621   -3.0247 H       1  LIG   0.0915   0.0000 
31    H9       5.1299   -3.2821   -2.9931 H       1  LIG   0.0571   0.0000 
32    H10      5.0435   -3.5141   -1.2365 H       1  LIG   0.0654   0.0000 
33    H11      2.8562   -4.5923   -1.3926 H       1  LIG   0.0462   0.0000 
34    H12      4.0044   -5.4246   -2.4448 H       1  LIG   0.0916   0.0000 
35    H13      3.7814   -0.8537    1.6166 H       1  LIG   0.1605   0.1500 
36    H14      5.7149   -1.0157    3.1724 H       1  LIG   0.1450   0.1500 
37    H15      7.9946   -1.4366    2.2533 H       1  LIG   0.1479   0.1500 
38    H16      8.2520   -1.6757   -0.2215 H       1  LIG   0.0279   0.1500 
@<TRIPOS>BOND
1     1     6     ar
2     1     2     ar
3     1     23    1
4     2     3     ar
5     2     24    1
6     3     4     ar
7     3     25    1
8     4     5     ar
9     5     6     ar
10    5     7     1
11    6     26    1
12    7     8     2
13    7     9     am
14    9     14    1
15    9     10    1
16    10    11    1
17    10    27    1
18    10    28    1
19    11    12    1
20    11    29    1
21    11    30    1
22    12    13    1
23    12    15    am
24    13    14    1
25    13    31    1
26    13    32    1
27    14    33    1
28    14    34    1
29    15    16    2
30    15    17    1
31    17    22    ar
32    17    18    ar
33    18    19    ar
34    18    35    1
35    19    20    ar
36    19    36    1
37    20    21    ar
38    20    37    1
39    21    22    ar
40    21    38    1
@<TRIPOS>SUBSTRUCTURE
1   LIG    1    
 
########## Number      : 898
########## Name        : ZINC00022437
########## Description : AM1BCC_CHARGES =   0.0002 ORIGINAL_CHARGES =  -0.0000

@<TRIPOS>MOLECULE
ZINC00022437
40    43    1     0     0    
SMALL
USER_CHARGES
****
****
@<TRIPOS>ATOM
1     C1       7.0947  -10.3823   -1.2942 C.3     1  LIG   0.1136   0.2800 
2     O1       5.9602   -9.5376   -1.1410 O.3     1  LIG  -0.3282  -0.3625 
3     C2       5.8725   -8.8274    0.0266 C.ar    1  LIG   0.1344   0.0825 
4     C3       6.7936   -8.8569    1.0714 C.ar    1  LIG  -0.2150  -0.1500 
5     C4       6.5834   -8.0806    2.2160 C.ar    1  LIG  -0.0544  -0.1500 
6     C5       5.4499   -7.2595    2.3485 C.ar    1  LIG  -0.1815   0.0000 
7     C6       4.5231   -7.2248    1.2800 C.ar    1  LIG  -0.0222  -0.1435 
8     C7       4.7434   -8.0104    0.1364 C.ar    1  LIG  -0.1636  -0.1500 
9     C8       3.3067   -6.3293    1.3417 C.3     1  LIG  -0.0394   0.1435 
10    C9       2.2805   -6.7492    2.4001 C.3     1  LIG  -0.0679   0.0000 
11    C10      2.8639   -7.2320    3.7311 C.3     1  LIG  -0.0267   0.1435 
12    C11      4.0083   -6.3781    4.2323 C.ar    1  LIG  -0.2691  -0.1435 
13    C12      5.2472   -6.4626    3.5779 C.ar    1  LIG   0.5237   0.3100 
14    N1       6.3462   -5.7961    4.0020 N.ar    1  LIG  -0.6910  -0.6200 
15    C13      6.2634   -5.0109    5.0827 C.ar    1  LIG   0.4246   0.3100 
16    C14      7.4185   -4.3585    5.5019 C.ar    1  LIG  -0.1722  -0.1500 
17    C15      7.4285   -3.5197    6.6146 C.ar    1  LIG  -0.1194  -0.1500 
18    C16      6.2601   -3.3225    7.3306 C.ar    1  LIG  -0.1395  -0.1500 
19    C17      5.0902   -3.9652    6.9272 C.ar    1  LIG  -0.1069  -0.1500 
20    C18      5.0614   -4.8222    5.7972 C.ar    1  LIG  -0.1796   0.0000 
21    C19      3.8974   -5.5026    5.3325 C.ar    1  LIG   0.1962   0.1000 
22    N2       2.6809   -5.3691    6.0068 N.pl3   1  LIG  -0.8271  -0.9000 
23    H1       2.5742   -4.6925    6.7484 H       1  LIG   0.4012   0.4000 
24    H2       1.8263   -5.7082    5.5883 H       1  LIG   0.4028   0.4000 
25    H3       7.0152  -10.8744   -2.2684 H       1  LIG   0.0657   0.0000 
26    H4       8.0229   -9.8013   -1.2898 H       1  LIG   0.0355   0.0000 
27    H5       7.1118  -11.1636   -0.5272 H       1  LIG   0.0329   0.0000 
28    H6       7.6866   -9.4729    1.0335 H       1  LIG   0.1388   0.1500 
29    H7       7.3184   -8.1325    3.0176 H       1  LIG   0.1481   0.1500 
30    H8       4.0279   -7.9826   -0.6834 H       1  LIG   0.1491   0.1500 
31    H9       3.6414   -5.3003    1.5297 H       1  LIG   0.0597   0.0000 
32    H10      2.8077   -6.2905    0.3652 H       1  LIG   0.0492   0.0000 
33    H11      1.6093   -5.9001    2.5809 H       1  LIG   0.0338   0.0000 
34    H12      1.6535   -7.5539    1.9949 H       1  LIG   0.0441   0.0000 
35    H13      2.0578   -7.3207    4.4657 H       1  LIG   0.0437   0.0000 
36    H14      3.2241   -8.2649    3.6239 H       1  LIG   0.0634   0.0000 
37    H15      8.3464   -4.5019    4.9505 H       1  LIG   0.1506   0.1500 
38    H16      8.3470   -3.0254    6.9166 H       1  LIG   0.1345   0.1500 
39    H17      6.2535   -2.6722    8.2003 H       1  LIG   0.1328   0.1500 
40    H18      4.1976   -3.7833    7.5194 H       1  LIG   0.1255   0.1500 
@<TRIPOS>BOND
1     1     2     1
2     1     25    1
3     1     26    1
4     1     27    1
5     2     3     1
6     3     8     ar
7     3     4     ar
8     4     5     ar
9     4     28    1
10    5     6     ar
11    5     29    1
12    6     13    1
13    6     7     ar
14    7     8     ar
15    7     9     1
16    8     30    1
17    9     10    1
18    9     31    1
19    9     32    1
20    10    11    1
21    10    33    1
22    10    34    1
23    11    12    1
24    11    35    1
25    11    36    1
26    12    21    ar
27    12    13    ar
28    13    14    ar
29    14    15    ar
30    15    20    ar
31    15    16    ar
32    16    17    ar
33    16    37    1
34    17    18    ar
35    17    38    1
36    18    19    ar
37    18    39    1
38    19    20    ar
39    19    40    1
40    20    21    ar
41    21    22    1
42    22    23    1
43    22    24    1
@<TRIPOS>SUBSTRUCTURE
1   LIG    1    
 
########## Number      : 899
########## Name        : ZINC00022439
########## Description : AM1BCC_CHARGES =   0.0001 ORIGINAL_CHARGES =  -0.0000

@<TRIPOS>MOLECULE
ZINC00022439
36    39    1     0     0    
SMALL
USER_CHARGES
****
****
@<TRIPOS>ATOM
1     C1       6.2372   -9.0537    1.8782 C.ar    1  LIG  -0.1279  -0.1500 
2     C2       5.6292   -8.5796    3.0357 C.ar    1  LIG  -0.1361  -0.1500 
3     C3       5.4600   -7.2069    3.2249 C.ar    1  LIG  -0.1285  -0.1500 
4     C4       5.9093   -6.2780    2.2678 C.ar    1  LIG  -0.0257   0.0000 
5     C5       6.5041   -6.7754    1.0817 C.ar    1  LIG  -0.0648  -0.1435 
6     C6       6.6678   -8.1577    0.9023 C.ar    1  LIG  -0.1297  -0.1500 
7     C7       6.9377   -5.8258   -0.0101 C.3     1  LIG  -0.0387   0.1435 
8     C8       5.7586   -5.1383   -0.7128 C.3     1  LIG  -0.0660   0.0000 
9     C9       4.5976   -4.7042    0.1923 C.3     1  LIG  -0.1363   0.1435 
10    C10      5.0520   -4.0640    1.4816 C.ar    1  LIG   0.4843   0.1665 
11    C11      5.7043   -4.8195    2.4695 C.ar    1  LIG  -0.2520   0.0000 
12    C12      6.1674   -4.1177    3.6094 C.ar    1  LIG   0.2150   0.1000 
13    C13      5.8685   -2.7292    3.7531 C.ar    1  LIG  -0.1857   0.0000 
14    C14      6.2252   -1.9450    4.8801 C.ar    1  LIG  -0.1035  -0.1500 
15    C15      5.9136   -0.5880    4.9577 C.ar    1  LIG  -0.1423  -0.1500 
16    C16      5.2401    0.0181    3.9110 C.ar    1  LIG  -0.1162  -0.1500 
17    C17      4.8821   -0.7371    2.7960 C.ar    1  LIG  -0.1751  -0.1500 
18    C18      5.1808   -2.0926    2.6987 C.ar    1  LIG   0.4312   0.3100 
19    N1       4.8012   -2.7391    1.5909 N.ar    1  LIG  -0.6997  -0.6200 
20    N2       6.8794   -4.7927    4.6077 N.pl3   1  LIG  -0.8330  -0.9000 
21    H1       7.2202   -5.7297    4.4386 H       1  LIG   0.4154   0.4000 
22    H2       7.2789   -4.2973    5.3908 H       1  LIG   0.4053   0.4000 
23    H3       6.3659  -10.1219    1.7298 H       1  LIG   0.1317   0.1500 
24    H4       5.2797   -9.2778    3.7910 H       1  LIG   0.1324   0.1500 
25    H5       4.9626   -6.8664    4.1312 H       1  LIG   0.1438   0.1500 
26    H6       7.1247   -8.5450   -0.0051 H       1  LIG   0.1322   0.1500 
27    H7       7.6114   -5.0742    0.4219 H       1  LIG   0.0560   0.0000 
28    H8       7.5411   -6.3507   -0.7614 H       1  LIG   0.0459   0.0000 
29    H9       6.1483   -4.2641   -1.2501 H       1  LIG   0.0501   0.0000 
30    H10      5.3532   -5.8106   -1.4800 H       1  LIG   0.0434   0.0000 
31    H11      3.9629   -4.0033   -0.3649 H       1  LIG   0.0678   0.0000 
32    H12      3.9503   -5.5600    0.4231 H       1  LIG   0.0628   0.0000 
33    H13      6.7515   -2.3800    5.7252 H       1  LIG   0.1258   0.1500 
34    H14      6.1978   -0.0120    5.8333 H       1  LIG   0.1330   0.1500 
35    H15      4.9914    1.0741    3.9570 H       1  LIG   0.1345   0.1500 
36    H16      4.3530   -0.2442    1.9821 H       1  LIG   0.1507   0.1500 
@<TRIPOS>BOND
1     1     6     ar
2     1     2     ar
3     1     23    1
4     2     3     ar
5     2     24    1
6     3     4     ar
7     3     25    1
8     4     11    1
9     4     5     ar
10    5     6     ar
11    5     7     1
12    6     26    1
13    7     8     1
14    7     27    1
15    7     28    1
16    8     9     1
17    8     29    1
18    8     30    1
19    9     10    1
20    9     31    1
21    9     32    1
22    10    19    ar
23    10    11    ar
24    11    12    ar
25    12    13    ar
26    12    20    1
27    13    18    ar
28    13    14    ar
29    14    15    ar
30    14    33    1
31    15    16    ar
32    15    34    1
33    16    17    ar
34    16    35    1
35    17    18    ar
36    17    36    1
37    18    19    ar
38    20    21    1
39    20    22    1
@<TRIPOS>SUBSTRUCTURE
1   LIG    1    
 
########## Number      : 900
########## Name        : ZINC00022949
########## Description : AM1BCC_CHARGES =  -0.9999 ORIGINAL_CHARGES =  -1.0000

@<TRIPOS>MOLECULE
ZINC00022949
33    34    1     0     0    
SMALL
USER_CHARGES
****
****
@<TRIPOS>ATOM
1     C1       4.9866  -10.3008   -0.7755 C.ar    1  LIG  -0.1069  -0.1500 
2     C2       4.3014  -11.4914   -0.5403 C.ar    1  LIG  -0.1308  -0.1500 
3     C3       3.4304  -11.5971    0.5470 C.ar    1  LIG  -0.1357  -0.1435 
4     C4       3.2738  -10.4966    1.4028 C.ar    1  LIG  -0.1656  -0.1500 
5     C5       3.9598   -9.2926    1.1746 C.ar    1  LIG   0.1104   0.1170 
6     C6       4.8169   -9.2050    0.0754 C.ar    1  LIG  -0.1354  -0.1500 
7     N1       3.7275   -8.2419    2.0931 N.am    1  LIG  -0.4959  -0.5470 
8     C7       4.2838   -6.9553    2.0881 C.2     1  LIG   0.7917   0.6900 
9     O1       5.0825   -6.5340    1.2582 O.2     1  LIG  -0.6192  -0.5700 
10    N2       3.7876   -6.2250    3.1763 N.am    1  LIG  -0.4631  -0.5470 
11    C8       4.0908   -4.8916    3.5384 C.ar    1  LIG   0.0248   0.1170 
12    C9       4.9679   -4.0617    2.8390 C.ar    1  LIG  -0.1693  -0.1500 
13    C10      5.2060   -2.7513    3.2753 C.ar    1  LIG  -0.0906  -0.1500 
14    C11      4.5754   -2.2391    4.4180 C.ar    1  LIG  -0.1344  -0.1790 
15    C12      3.6964   -3.0777    5.1151 C.ar    1  LIG  -0.0857  -0.1500 
16    C13      3.4578   -4.3858    4.6807 C.ar    1  LIG  -0.2043  -0.1500 
17    C14      4.8357   -0.8274    4.8831 C.2     1  LIG   0.9095   0.9790 
18    O2       4.2259   -0.4369    5.9276 O.co2   1  LIG  -0.8316  -0.9000 
19    C15      2.7052  -12.8826    0.8235 C.3     1  LIG   0.6856   1.1635 
20    F1       2.4845  -13.6293   -0.2943 F       1  LIG  -0.2429  -0.3400 
21    F2       3.3901  -13.6875    1.6815 F       1  LIG  -0.2418  -0.3400 
22    F3       1.4784  -12.6948    1.3854 F       1  LIG  -0.2433  -0.3400 
23    H1       3.0778   -8.4528    2.8438 H       1  LIG   0.3099   0.3700 
24    H2       3.1300   -6.7025    3.7842 H       1  LIG   0.3065   0.3700 
25    H3       5.6598  -10.2236   -1.6253 H       1  LIG   0.1397   0.1500 
26    H4       4.4530  -12.3331   -1.2115 H       1  LIG   0.1447   0.1500 
27    H5       2.6059  -10.5854    2.2584 H       1  LIG   0.1420   0.1500 
28    H6       5.3750   -8.3052   -0.1556 H       1  LIG   0.1908   0.1500 
29    H7       5.4904   -4.3894    1.9478 H       1  LIG   0.1498   0.1500 
30    H8       5.8966   -2.1351    2.7031 H       1  LIG   0.1568   0.1500 
31    H9       3.1837   -2.7253    6.0072 H       1  LIG   0.1567   0.1500 
32    H10      2.7677   -5.0029    5.2518 H       1  LIG   0.1032   0.1500 
33    O3       5.6460   -0.1283    4.1978 O.co2   1  LIG  -0.8255  -0.9000 
@<TRIPOS>BOND
1     1     6     ar
2     1     2     ar
3     1     25    1
4     2     3     ar
5     2     26    1
6     3     4     ar
7     3     19    1
8     4     5     ar
9     4     27    1
10    5     6     ar
11    5     7     1
12    6     28    1
13    7     8     am
14    7     23    1
15    8     9     2
16    8     10    am
17    10    11    1
18    10    24    1
19    11    16    ar
20    11    12    ar
21    12    13    ar
22    12    29    1
23    13    14    ar
24    13    30    1
25    14    15    ar
26    14    17    1
27    15    16    ar
28    15    31    1
29    16    32    1
30    17    18    2
31    17    33    1
32    19    20    1
33    19    21    1
34    19    22    1
@<TRIPOS>SUBSTRUCTURE
1   LIG    1    
 
########## Number      : 901
########## Name        : ZINC00023387
########## Description : AM1BCC_CHARGES =  -0.0001 ORIGINAL_CHARGES =   0.0000

@<TRIPOS>MOLECULE
ZINC00023387
33    36    1     0     0    
SMALL
USER_CHARGES
****
****
@<TRIPOS>ATOM
1     C1       6.8146   -9.1992    0.1026 C.ar    1  LIG  -0.1065  -0.1500 
2     C2       6.7102   -7.8780    0.5471 C.ar    1  LIG  -0.1347  -0.1500 
3     C3       5.5763   -7.4436    1.2534 C.ar    1  LIG  -0.0818  -0.1435 
4     C4       4.5499   -8.3668    1.5064 C.ar    1  LIG  -0.1426  -0.1500 
5     C5       4.6658   -9.6807    1.0585 C.ar    1  LIG   0.1237   0.1900 
6     C6       5.7889  -10.1050    0.3583 C.ar    1  LIG  -0.1565  -0.1500 
7     F1       3.6773  -10.5507    1.3083 F       1  LIG  -0.1373  -0.1900 
8     C7       5.4884   -6.0059    1.7242 C.3     1  LIG   0.2620   0.5126 
9     C8       4.3199   -5.2692    1.0572 C.3     1  LIG  -0.1807   0.0610 
10    C9       4.1981   -3.8662    1.6044 C.2     1  LIG   0.5901   0.4228 
11    O1       3.8295   -2.9253    0.9095 O.2     1  LIG  -0.5405  -0.5700 
12    C10      4.4654   -3.6886    3.0518 C.ar    1  LIG  -0.2519   0.0862 
13    C11      4.1502   -2.4698    3.6673 C.ar    1  LIG  -0.0180  -0.1500 
14    C12      4.3606   -2.3745    5.0256 C.ar    1  LIG  -0.0077   0.0825 
15    C13      4.8542   -3.4286    5.7564 C.ar    1  LIG   0.1294   0.0825 
16    C14      5.1759   -4.6366    5.1688 C.ar    1  LIG  -0.2014  -0.1500 
17    C15      5.0015   -4.7763    3.7831 C.ar    1  LIG   0.2139   0.1000 
18    N1       5.3238   -5.9816    3.1664 N.pl3   1  LIG  -0.7375  -0.8691 
19    O2       4.9763   -3.1295    7.0785 O.3     1  LIG  -0.3328  -0.3625 
20    C16      4.5045   -1.7667    7.0966 C.3     1  LIG   0.3213   0.5600 
21    O3       4.1099   -1.2820    5.7969 O.3     1  LIG  -0.3294  -0.3625 
22    H1       5.7809   -6.6950    3.7240 H       1  LIG   0.4205   0.4000 
23    H2       7.6980   -9.5189   -0.4430 H       1  LIG   0.1418   0.1500 
24    H3       7.5245   -7.1887    0.3355 H       1  LIG   0.1395   0.1500 
25    H4       3.6590   -8.0724    2.0545 H       1  LIG   0.1615   0.1500 
26    H5       5.8642  -11.1321    0.0161 H       1  LIG   0.1524   0.1500 
27    H6       6.4079   -5.4666    1.4372 H       1  LIG   0.0429   0.0000 
28    H7       4.4893   -5.2096   -0.0247 H       1  LIG   0.0858   0.0000 
29    H8       3.3579   -5.7697    1.2202 H       1  LIG   0.0880   0.0000 
30    H9       3.7420   -1.6329    3.1115 H       1  LIG   0.1779   0.1500 
31    H10      5.5660   -5.4517    5.7704 H       1  LIG   0.1597   0.1500 
32    H11      3.6432   -1.7025    7.7714 H       1  LIG   0.0751   0.0000 
33    H12      5.3034   -1.1237    7.4834 H       1  LIG   0.0737   0.0000 
@<TRIPOS>BOND
1     1     6     ar
2     1     2     ar
3     1     23    1
4     2     3     ar
5     2     24    1
6     3     4     ar
7     3     8     1
8     4     5     ar
9     4     25    1
10    5     6     ar
11    5     7     1
12    6     26    1
13    8     18    1
14    8     9     1
15    8     27    1
16    9     10    1
17    9     28    1
18    9     29    1
19    10    11    2
20    10    12    1
21    12    17    ar
22    12    13    ar
23    13    14    ar
24    13    30    1
25    14    21    1
26    14    15    ar
27    15    16    ar
28    15    19    1
29    16    17    ar
30    16    31    1
31    17    18    1
32    18    22    1
33    19    20    1
34    20    21    1
35    20    32    1
36    20    33    1
@<TRIPOS>SUBSTRUCTURE
1   LIG    1    
 
########## Number      : 902
########## Name        : ZINC00023388
########## Description : AM1BCC_CHARGES =   0.0001 ORIGINAL_CHARGES =  -0.0000

@<TRIPOS>MOLECULE
ZINC00023388
46    49    1     0     0    
SMALL
USER_CHARGES
****
****
@<TRIPOS>ATOM
1     C1       4.1885   -4.4844   -6.8126 C.3     1  LIG   0.1121   0.2800 
2     O1       3.1709   -5.3398   -6.3060 O.3     1  LIG  -0.3275  -0.3625 
3     C2       2.9444   -5.2999   -4.9557 C.ar    1  LIG   0.1205   0.0825 
4     C3       1.9386   -6.1581   -4.5032 C.ar    1  LIG  -0.1484  -0.1500 
5     C4       1.6103   -6.2107   -3.1498 C.ar    1  LIG  -0.1022  -0.1500 
6     C5       2.2867   -5.4046   -2.2355 C.ar    1  LIG  -0.1566  -0.1500 
7     C6       3.3005   -4.5366   -2.6649 C.ar    1  LIG  -0.0673  -0.1435 
8     C7       3.6208   -4.4927   -4.0354 C.ar    1  LIG  -0.1802  -0.1500 
9     C8       4.0234   -3.6699   -1.6524 C.3     1  LIG   0.2517   0.5126 
10    C9       5.5099   -4.0392   -1.5605 C.3     1  LIG  -0.1773   0.0610 
11    C10      6.2315   -3.0989   -0.6229 C.2     1  LIG   0.5852   0.4228 
12    O2       7.1663   -3.4698    0.0789 O.2     1  LIG  -0.5436  -0.5700 
13    C11      5.8099   -1.6771   -0.6503 C.ar    1  LIG  -0.1939   0.0862 
14    C12      6.5791   -0.7072    0.0136 C.ar    1  LIG  -0.0980  -0.1500 
15    C13      6.2486    0.6581   -0.0368 C.ar    1  LIG   0.1132   0.1000 
16    C14      5.1134    0.9937   -0.7946 C.ar    1  LIG  -0.1243  -0.1500 
17    C15      4.3418    0.0258   -1.4536 C.ar    1  LIG  -0.1685  -0.1500 
18    C16      4.6656   -1.3286   -1.3737 C.ar    1  LIG   0.1432   0.1000 
19    N1       3.8872   -2.2741   -2.0286 N.pl3   1  LIG  -0.7213  -0.8691 
20    N2       6.9988    1.6139    0.6125 N.pl3   1  LIG  -0.6443  -0.8382 
21    C17      8.1058    1.3139    1.5179 C.3     1  LIG   0.1874   0.3691 
22    C18      8.3916    2.6495    2.2004 C.3     1  LIG  -0.0871   0.0000 
23    C19      8.0207    3.6669    1.1357 C.3     1  LIG  -0.0860   0.0000 
24    C20      6.7822    3.0533    0.4869 C.3     1  LIG   0.1880   0.3691 
25    H1       3.0234   -1.9658   -2.4614 H       1  LIG   0.4042   0.4000 
26    H2       4.2445   -4.6370   -7.8948 H       1  LIG   0.0670   0.0000 
27    H3       3.9427   -3.4318   -6.6375 H       1  LIG   0.0362   0.0000 
28    H4       5.1658   -4.7397   -6.3898 H       1  LIG   0.0351   0.0000 
29    H5       1.4036   -6.7919   -5.2062 H       1  LIG   0.1511   0.1500 
30    H6       0.8267   -6.8806   -2.8074 H       1  LIG   0.1363   0.1500 
31    H7       2.0156   -5.4608   -1.1840 H       1  LIG   0.1343   0.1500 
32    H8       4.4037   -3.8135   -4.3610 H       1  LIG   0.1520   0.1500 
33    H9       3.5936   -3.8364   -0.6493 H       1  LIG   0.0367   0.0000 
34    H10      5.6140   -5.0624   -1.1800 H       1  LIG   0.0830   0.0000 
35    H11      6.0178   -3.9880   -2.5310 H       1  LIG   0.0857   0.0000 
36    H12      7.4621   -1.0298    0.5609 H       1  LIG   0.1560   0.1500 
37    H13      4.7926    2.0293   -0.8845 H       1  LIG   0.1345   0.1500 
38    H14      3.4717    0.3491   -2.0210 H       1  LIG   0.1332   0.1500 
39    H15      7.8465    0.5577    2.2666 H       1  LIG   0.0338   0.0000 
40    H16      8.9789    0.9777    0.9472 H       1  LIG   0.0586   0.0000 
41    H17      7.7413    2.7713    3.0752 H       1  LIG   0.0484   0.0000 
42    H18      9.4303    2.7368    2.5310 H       1  LIG   0.0547   0.0000 
43    H19      7.8290    4.6626    1.5450 H       1  LIG   0.0495   0.0000 
44    H20      8.8297    3.7480    0.3996 H       1  LIG   0.0536   0.0000 
45    H21      6.7041    3.3796   -0.5557 H       1  LIG   0.0552   0.0000 
46    H22      5.8766    3.3472    1.0297 H       1  LIG   0.0262   0.0000 
@<TRIPOS>BOND
1     1     2     1
2     1     26    1
3     1     27    1
4     1     28    1
5     2     3     1
6     3     8     ar
7     3     4     ar
8     4     5     ar
9     4     29    1
10    5     6     ar
11    5     30    1
12    6     7     ar
13    6     31    1
14    7     8     ar
15    7     9     1
16    8     32    1
17    9     19    1
18    9     10    1
19    9     33    1
20    10    11    1
21    10    34    1
22    10    35    1
23    11    12    2
24    11    13    1
25    13    18    ar
26    13    14    ar
27    14    15    ar
28    14    36    1
29    15    16    ar
30    15    20    1
31    16    17    ar
32    16    37    1
33    17    18    ar
34    17    38    1
35    18    19    1
36    19    25    1
37    20    24    1
38    20    21    1
39    21    22    1
40    21    39    1
41    21    40    1
42    22    23    1
43    22    41    1
44    22    42    1
45    23    24    1
46    23    43    1
47    23    44    1
48    24    45    1
49    24    46    1
@<TRIPOS>SUBSTRUCTURE
1   LIG    1    
 
########## Number      : 903
########## Name        : ZINC00023389
########## Description : AM1BCC_CHARGES =  -0.0001 ORIGINAL_CHARGES =  -0.0000

@<TRIPOS>MOLECULE
ZINC00023389
42    45    1     0     0    
SMALL
USER_CHARGES
****
****
@<TRIPOS>ATOM
1     C1       7.1562   -8.5731   -2.7327 C.ar    1  LIG  -0.1239  -0.1500 
2     C2       6.2272   -7.9168   -1.9223 C.ar    1  LIG  -0.1199  -0.1500 
3     C3       5.7969   -8.4894   -0.7152 C.ar    1  LIG  -0.0941  -0.1435 
4     C4       6.3224   -9.7363   -0.3373 C.ar    1  LIG  -0.1009  -0.1500 
5     C5       7.2511  -10.3867   -1.1524 C.ar    1  LIG   0.0125   0.1770 
6     C6       7.6700   -9.8101   -2.3494 C.ar    1  LIG  -0.1174  -0.1500 
7     Cl1      7.8850  -11.9146   -0.6729 Cl      1  LIG  -0.0904  -0.1770 
8     C7       4.7875   -7.7572    0.1461 C.3     1  LIG   0.2502   0.5126 
9     C8       3.4770   -8.5464    0.2655 C.3     1  LIG  -0.1777   0.0610 
10    C9       2.5235   -7.8486    1.2078 C.2     1  LIG   0.5866   0.4228 
11    O1       1.3089   -7.8721    1.0403 O.2     1  LIG  -0.5430  -0.5700 
12    C10      3.1213   -7.1984    2.3994 C.ar    1  LIG  -0.1968   0.0862 
13    C11      2.2905   -6.7346    3.4329 C.ar    1  LIG  -0.1007  -0.1500 
14    C12      2.8185   -6.1668    4.6054 C.ar    1  LIG   0.1037   0.1000 
15    C13      4.2202   -6.0993    4.6849 C.ar    1  LIG  -0.1131  -0.1500 
16    C14      5.0503   -6.5574    3.6517 C.ar    1  LIG  -0.1703  -0.1500 
17    C15      4.5129   -7.0947    2.4821 C.ar    1  LIG   0.1448   0.1000 
18    N1       5.3500   -7.5386    1.4666 N.pl3   1  LIG  -0.7218  -0.8691 
19    N2       2.0090   -5.7098    5.6221 N.pl3   1  LIG  -0.6338  -0.8382 
20    C16      0.5521   -5.6331    5.5407 C.3     1  LIG   0.1808   0.3691 
21    C17      0.1621   -4.7942    6.7553 C.3     1  LIG  -0.0866   0.0000 
22    C18      1.2405   -5.1338    7.7693 C.3     1  LIG  -0.0884   0.0000 
23    C19      2.5008   -5.2353    6.9135 C.3     1  LIG   0.1820   0.3691 
24    H1       6.3438   -7.3548    1.5517 H       1  LIG   0.4050   0.4000 
25    H2       7.4789   -8.1172   -3.6646 H       1  LIG   0.1400   0.1500 
26    H3       5.8408   -6.9521   -2.2433 H       1  LIG   0.1384   0.1500 
27    H4       6.0075  -10.1964    0.5968 H       1  LIG   0.1617   0.1500 
28    H5       8.3923  -10.3108   -2.9883 H       1  LIG   0.1489   0.1500 
29    H6       4.5331   -6.7910   -0.3232 H       1  LIG   0.0393   0.0000 
30    H7       3.0017   -8.6255   -0.7196 H       1  LIG   0.0827   0.0000 
31    H8       3.6304   -9.5628    0.6476 H       1  LIG   0.0876   0.0000 
32    H9       1.2138   -6.8409    3.3211 H       1  LIG   0.1574   0.1500 
33    H10      4.7064   -5.6751    5.5608 H       1  LIG   0.1363   0.1500 
34    H11      6.1283   -6.4736    3.7719 H       1  LIG   0.1358   0.1500 
35    H12      0.2050   -5.1477    4.6222 H       1  LIG   0.0606   0.0000 
36    H13      0.1174   -6.6368    5.6093 H       1  LIG   0.0333   0.0000 
37    H14      0.2078   -3.7272    6.5056 H       1  LIG   0.0530   0.0000 
38    H15     -0.8464   -5.0193    7.1131 H       1  LIG   0.0517   0.0000 
39    H16      1.3318   -4.3861    8.5620 H       1  LIG   0.0528   0.0000 
40    H17      1.0229   -6.1029    8.2345 H       1  LIG   0.0482   0.0000 
41    H18      3.2130   -5.9277    7.3749 H       1  LIG   0.0333   0.0000 
42    H19      2.9703   -4.2516    6.7999 H       1  LIG   0.0521   0.0000 
@<TRIPOS>BOND
1     1     6     ar
2     1     2     ar
3     1     25    1
4     2     3     ar
5     2     26    1
6     3     4     ar
7     3     8     1
8     4     5     ar
9     4     27    1
10    5     6     ar
11    5     7     1
12    6     28    1
13    8     18    1
14    8     9     1
15    8     29    1
16    9     10    1
17    9     30    1
18    9     31    1
19    10    11    2
20    10    12    1
21    12    17    ar
22    12    13    ar
23    13    14    ar
24    13    32    1
25    14    15    ar
26    14    19    1
27    15    16    ar
28    15    33    1
29    16    17    ar
30    16    34    1
31    17    18    1
32    18    24    1
33    19    23    1
34    19    20    1
35    20    21    1
36    20    35    1
37    20    36    1
38    21    22    1
39    21    37    1
40    21    38    1
41    22    23    1
42    22    39    1
43    22    40    1
44    23    41    1
45    23    42    1
@<TRIPOS>SUBSTRUCTURE
1   LIG    1    
 
########## Number      : 904
########## Name        : ZINC00023543
########## Description : AM1BCC_CHARGES =  -0.0001 ORIGINAL_CHARGES =   0.0000

@<TRIPOS>MOLECULE
ZINC00023543
35    37    1     0     0    
SMALL
USER_CHARGES
****
****
@<TRIPOS>ATOM
1     C1       4.4722   -8.4259    2.0623 C.2     1  LIG   0.3860   0.0365 
2     N1       4.1644   -8.7120    0.7592 N.pl3   1  LIG  -0.3855   0.0332 
3     C2       3.6947   -7.5611    0.1940 C.ar    1  LIG   0.4765   0.1054 
4     C3       3.7419   -6.6160    1.2017 C.ar    1  LIG  -0.2194   0.2272 
5     N2       4.2287   -7.1674    2.3623 N.2     1  LIG  -0.5002  -0.5653 
6     C4       3.3071   -5.3377    0.8680 C.ar    1  LIG   0.7600   0.3925 
7     N3       2.8723   -5.1061   -0.3999 N.ar    1  LIG  -0.8402  -0.6200 
8     C5       2.8732   -6.1194   -1.3057 C.ar    1  LIG   0.9158   0.7200 
9     N4       3.2781   -7.3870   -1.0664 N.ar    1  LIG  -0.7801  -0.5670 
10    N5       2.4211   -5.8268   -2.5795 N.pl3   1  LIG  -0.9266  -0.9000 
11    O1       3.3207   -4.3348    1.8175 O.3     1  LIG  -0.4190  -0.3625 
12    C6       2.8684   -3.0688    1.3293 C.3     1  LIG   0.1362   0.2800 
13    C7       2.9472   -2.0407    2.4685 C.3     1  LIG  -0.0701   0.0000 
14    C8       4.3945   -1.8523    2.9550 C.3     1  LIG  -0.0753   0.0000 
15    C9       4.4914   -0.7868    4.0448 C.3     1  LIG  -0.0764   0.0000 
16    C10      3.8825    0.5372    3.5955 C.3     1  LIG  -0.0780   0.0000 
17    C11      2.4453    0.3583    3.1181 C.3     1  LIG  -0.0746   0.0000 
18    C12      2.3435   -0.7013    2.0238 C.3     1  LIG  -0.0740   0.0000 
19    H1       4.2648   -9.6063    0.2988 H       1  LIG   0.3169   0.2700 
20    H2       2.1108   -4.8904   -2.7940 H       1  LIG   0.4281   0.4000 
21    H3       2.4059   -6.5521   -3.2814 H       1  LIG   0.4282   0.4000 
22    H4       4.8674   -9.1737    2.7355 H       1  LIG   0.0724   0.1500 
23    H5       1.8274   -3.1569    0.9931 H       1  LIG   0.0533   0.0000 
24    H6       3.4954   -2.7418    0.4897 H       1  LIG   0.0560   0.0000 
25    H7       2.3633   -2.4266    3.3157 H       1  LIG   0.0677   0.0000 
26    H8       4.7905   -2.7968    3.3459 H       1  LIG   0.0612   0.0000 
27    H9       5.0348   -1.5643    2.1114 H       1  LIG   0.0386   0.0000 
28    H10      3.9744   -1.1394    4.9457 H       1  LIG   0.0417   0.0000 
29    H11      5.5416   -0.6350    4.3185 H       1  LIG   0.0409   0.0000 
30    H12      3.9100    1.2555    4.4225 H       1  LIG   0.0390   0.0000 
31    H13      4.4871    0.9605    2.7839 H       1  LIG   0.0391   0.0000 
32    H14      1.8118    0.0693    3.9657 H       1  LIG   0.0413   0.0000 
33    H15      2.0602    1.3132    2.7429 H       1  LIG   0.0392   0.0000 
34    H16      2.8589   -0.3410    1.1242 H       1  LIG   0.0414   0.0000 
35    H17      1.2899   -0.8381    1.7525 H       1  LIG   0.0398   0.0000 
@<TRIPOS>BOND
1     1     5     2
2     1     2     1
3     1     22    1
4     2     3     1
5     2     19    1
6     3     9     ar
7     3     4     ar
8     4     5     1
9     4     6     ar
10    6     7     ar
11    6     11    1
12    7     8     ar
13    8     9     ar
14    8     10    1
15    10    20    1
16    10    21    1
17    11    12    1
18    12    13    1
19    12    23    1
20    12    24    1
21    13    18    1
22    13    14    1
23    13    25    1
24    14    15    1
25    14    26    1
26    14    27    1
27    15    16    1
28    15    28    1
29    15    29    1
30    16    17    1
31    16    30    1
32    16    31    1
33    17    18    1
34    17    32    1
35    17    33    1
36    18    34    1
37    18    35    1
@<TRIPOS>SUBSTRUCTURE
1   LIG    1    
 
########## Number      : 905
########## Name        : ZINC00023548
########## Description : AM1BCC_CHARGES =   0.0002 ORIGINAL_CHARGES =   0.0000

@<TRIPOS>MOLECULE
ZINC00023548
47    48    1     0     0    
SMALL
USER_CHARGES
****
****
@<TRIPOS>ATOM
1     C1       1.8960   11.4212    5.1100 C.3     1  LIG  -0.0901   0.0000 
2     C2       2.5991   11.4353    6.4977 C.3     1  LIG  -0.0047   0.1435 
3     C3       4.1151   11.4930    6.2167 C.3     1  LIG  -0.0901   0.0000 
4     C4       2.1271   12.7495    7.1660 C.3     1  LIG  -0.0937   0.0000 
5     C5       2.2747   10.1875    7.3602 C.ar    1  LIG  -0.1340  -0.1435 
6     C6       1.7128    9.0502    6.7496 C.ar    1  LIG  -0.0593  -0.1500 
7     C7       1.3382    7.9197    7.4826 C.ar    1  LIG  -0.1338   0.0284 
8     C8       1.5442    7.8909    8.8632 C.ar    1  LIG  -0.0834  -0.1500 
9     C9       2.1251    8.9735    9.5448 C.ar    1  LIG  -0.0847  -0.1435 
10    C10      2.5001   10.1003    8.7605 C.ar    1  LIG   0.1470   0.0825 
11    O1       3.1160   11.1260    9.4296 O.3     1  LIG  -0.5076  -0.5325 
12    C11      2.3475    8.9086   11.0776 C.3     1  LIG   0.0060   0.1435 
13    C12      1.8281    7.5999   11.7306 C.3     1  LIG  -0.0917   0.0000 
14    C13      3.8552    8.9805   11.4078 C.3     1  LIG  -0.0865   0.0000 
15    C14      1.5961   10.0597   11.7844 C.3     1  LIG  -0.0876   0.0000 
16    C15      0.7532    6.7499    6.8186 C.2     1  LIG   0.0697  -0.1784 
17    C16     -0.4438    6.7183    6.2228 C.2     1  LIG  -0.3181   0.0288 
18    C17     -1.4623    7.7778    6.0874 C.2     1  LIG   0.5629   0.5412 
19    O2      -1.4320    8.9198    6.4967 O.2     1  LIG  -0.4923  -0.5700 
20    C18     -2.5765    7.1619    5.3381 C.2     1  LIG  -0.1892  -0.1356 
21    C19     -2.3025    5.8834    5.0469 C.2     1  LIG  -0.1918  -0.1356 
22    C20     -0.9742    5.5067    5.5684 C.2     1  LIG   0.5580   0.5412 
23    O3      -0.4478    4.4175    5.4658 O.2     1  LIG  -0.5046  -0.5700 
24    H1       3.7904   11.5164    8.8553 H       1  LIG   0.4237   0.4500 
25    H2       0.8098   11.3119    5.2122 H       1  LIG   0.0523   0.0000 
26    H3       2.0806   12.3531    4.5615 H       1  LIG   0.0368   0.0000 
27    H4       2.2669   10.6141    4.4679 H       1  LIG   0.0347   0.0000 
28    H5       4.7155   11.5866    7.1252 H       1  LIG   0.0237   0.0000 
29    H6       4.4537   10.5864    5.7009 H       1  LIG   0.0444   0.0000 
30    H7       4.3642   12.3494    5.5790 H       1  LIG   0.0413   0.0000 
31    H8       2.7222   13.0352    8.0360 H       1  LIG   0.0320   0.0000 
32    H9       2.2019   13.5955    6.4718 H       1  LIG   0.0381   0.0000 
33    H10      1.0806   12.6749    7.4838 H       1  LIG   0.0549   0.0000 
34    H11      1.5441    9.0210    5.6768 H       1  LIG   0.1433   0.1500 
35    H12      1.2405    6.9930    9.3942 H       1  LIG   0.1418   0.1500 
36    H13      1.9958    7.6045   12.8147 H       1  LIG   0.0383   0.0000 
37    H14      0.7505    7.4705   11.5753 H       1  LIG   0.0369   0.0000 
38    H15      2.3437    6.7170   11.3348 H       1  LIG   0.0336   0.0000 
39    H16      4.0297    8.8514   12.4827 H       1  LIG   0.0330   0.0000 
40    H17      4.4097    8.1927   10.8842 H       1  LIG   0.0322   0.0000 
41    H18      4.3080    9.9371   11.1333 H       1  LIG   0.0509   0.0000 
42    H19      1.6732    9.9698   12.8746 H       1  LIG   0.0310   0.0000 
43    H20      1.9875   11.0480   11.5288 H       1  LIG   0.0571   0.0000 
44    H21      0.5309   10.0506   11.5248 H       1  LIG   0.0367   0.0000 
45    H22      1.3703    5.8545    6.8497 H       1  LIG   0.1490   0.1500 
46    H23     -3.4758    7.6975    5.0799 H       1  LIG   0.1669   0.1500 
47    H24     -2.9391    5.1987    4.5103 H       1  LIG   0.1672   0.1500 
@<TRIPOS>BOND
1     1     2     1
2     1     25    1
3     1     26    1
4     1     27    1
5     2     3     1
6     2     4     1
7     2     5     1
8     3     28    1
9     3     29    1
10    3     30    1
11    4     31    1
12    4     32    1
13    4     33    1
14    5     10    ar
15    5     6     ar
16    6     7     ar
17    6     34    1
18    7     8     ar
19    7     16    1
20    8     9     ar
21    8     35    1
22    9     10    ar
23    9     12    1
24    10    11    1
25    11    24    1
26    12    13    1
27    12    14    1
28    12    15    1
29    13    36    1
30    13    37    1
31    13    38    1
32    14    39    1
33    14    40    1
34    14    41    1
35    15    42    1
36    15    43    1
37    15    44    1
38    16    17    2
39    16    45    1
40    17    22    1
41    17    18    1
42    18    19    2
43    18    20    1
44    20    21    2
45    20    46    1
46    21    22    1
47    21    47    1
48    22    23    2
@<TRIPOS>SUBSTRUCTURE
1   LIG    1    
 
########## Number      : 906
########## Name        : ZINC00023550
########## Description : AM1BCC_CHARGES =   0.0001 ORIGINAL_CHARGES =   0.0000

@<TRIPOS>MOLECULE
ZINC00023550
21    22    1     0     0    
SMALL
USER_CHARGES
****
****
@<TRIPOS>ATOM
1     C1       5.8522   -5.1229    0.4575 C.3     1  LIG  -0.0582   0.2300 
2     S1       5.2616   -6.7496    1.0001 S.3     1  LIG  -0.2531  -0.3315 
3     C2       3.8587   -7.0122   -0.1031 C.ar    1  LIG   0.5179   0.4115 
4     C3       3.0808   -8.1969   -0.0247 C.ar    1  LIG  -0.1464   0.0000 
5     C4       3.2945   -9.2677    0.8812 C.ar    1  LIG  -0.0968  -0.1500 
6     C5       2.4745  -10.3982    0.8853 C.ar    1  LIG  -0.1334  -0.1500 
7     C6       1.4198  -10.4931   -0.0122 C.ar    1  LIG  -0.1095  -0.1500 
8     C7       1.1839   -9.4583   -0.9144 C.ar    1  LIG  -0.1284  -0.1500 
9     C8       1.9996   -8.3142   -0.9314 C.ar    1  LIG  -0.0009   0.0000 
10    C9       1.7459   -7.2883   -1.8439 C.ar    1  LIG  -0.2435  -0.1500 
11    C10      2.5664   -6.1783   -1.8340 C.ar    1  LIG   0.4021   0.1600 
12    N1       3.6056   -6.0196   -0.9929 N.ar    1  LIG  -0.6942  -0.6200 
13    H1       6.7197   -4.8420    1.0609 H       1  LIG   0.0751   0.0000 
14    H2       6.1593   -5.1525   -0.5916 H       1  LIG   0.0761   0.0000 
15    H3       5.0776   -4.3636    0.5961 H       1  LIG   0.0733   0.0000 
16    H4       4.1077   -9.2386    1.6025 H       1  LIG   0.1474   0.1500 
17    H5       2.6631  -11.2022    1.5911 H       1  LIG   0.1363   0.1500 
18    H6       0.7803  -11.3710   -0.0115 H       1  LIG   0.1346   0.1500 
19    H7       0.3514   -9.5538   -1.6091 H       1  LIG   0.1367   0.1500 
20    H8       0.9255   -7.3460   -2.5528 H       1  LIG   0.1435   0.1500 
21    H9       2.4031   -5.3592   -2.5268 H       1  LIG   0.0215   0.1500 
@<TRIPOS>BOND
1     1     2     1
2     1     13    1
3     1     14    1
4     1     15    1
5     2     3     1
6     3     12    ar
7     3     4     ar
8     4     9     ar
9     4     5     ar
10    5     6     ar
11    5     16    1
12    6     7     ar
13    6     17    1
14    7     8     ar
15    7     18    1
16    8     9     ar
17    8     19    1
18    9     10    ar
19    10    11    ar
20    10    20    1
21    11    12    ar
22    11    21    1
@<TRIPOS>SUBSTRUCTURE
1   LIG    1    
 
########## Number      : 907
########## Name        : ZINC00023575
########## Description : AM1BCC_CHARGES =   0.0000 ORIGINAL_CHARGES =   0.0000

@<TRIPOS>MOLECULE
ZINC00023575
32    35    1     0     0    
SMALL
USER_CHARGES
****
****
@<TRIPOS>ATOM
1     C1       4.4220   -9.4674   -0.8931 C.ar    1  LIG  -0.1200  -0.1500 
2     C2       3.2093   -9.2892   -0.2270 C.ar    1  LIG  -0.1288  -0.1500 
3     C3       3.0053   -8.1654    0.5741 C.ar    1  LIG  -0.1193  -0.1500 
4     C4       4.0324   -7.2144    0.7198 C.ar    1  LIG  -0.0127   0.0530 
5     C5       5.2639   -7.3902    0.0383 C.ar    1  LIG  -0.0524  -0.1435 
6     C6       5.4404   -8.5204   -0.7700 C.ar    1  LIG  -0.1292  -0.1500 
7     C7       6.3326   -6.3163    0.0723 C.3     1  LIG  -0.0358   0.1435 
8     C8       6.3109   -5.4802    1.3584 C.3     1  LIG   0.0025   0.1810 
9     C9       4.9152   -5.2250    1.8121 C.2     1  LIG  -0.2149  -0.1810 
10    C10      3.8593   -6.0770    1.5320 C.2     1  LIG  -0.0654  -0.2046 
11    N1       2.8003   -5.5647    2.2231 N.pl3   1  LIG   0.0091   0.2996 
12    N2       3.0713   -4.4362    2.8939 N.2     1  LIG  -0.4954  -0.7068 
13    C11      4.3720   -4.2081    2.6515 C.2     1  LIG   0.3508   0.2348 
14    C12      5.0441   -3.0586    3.2435 C.ar    1  LIG  -0.0696   0.0540 
15    C13      5.8118   -2.1970    2.4584 C.ar    1  LIG  -0.2344  -0.1500 
16    C14      6.4223   -1.1161    3.0766 C.ar    1  LIG   0.3884   0.1600 
17    N3       6.3198   -0.8394    4.3946 N.ar    1  LIG  -0.6635  -0.6200 
18    C15      5.5637   -1.6850    5.1277 C.ar    1  LIG   0.3886   0.1600 
19    C16      4.9109   -2.7925    4.6085 C.ar    1  LIG  -0.2223  -0.1500 
20    H1       1.8576   -5.9303    2.2722 H       1  LIG   0.3257   0.2700 
21    H2       4.5704  -10.3417   -1.5209 H       1  LIG   0.1351   0.1500 
22    H3       2.4197  -10.0278   -0.3347 H       1  LIG   0.1353   0.1500 
23    H4       2.0520   -8.0513    1.0829 H       1  LIG   0.1266   0.1500 
24    H5       6.3677   -8.6641   -1.3191 H       1  LIG   0.1353   0.1500 
25    H6       7.3280   -6.7602   -0.0469 H       1  LIG   0.0536   0.0000 
26    H7       6.1622   -5.6580   -0.7898 H       1  LIG   0.0570   0.0000 
27    H8       6.8295   -6.0304    2.1545 H       1  LIG   0.0571   0.0000 
28    H9       6.8671   -4.5525    1.1962 H       1  LIG   0.0556   0.0000 
29    H10      5.9279   -2.3440    1.3898 H       1  LIG   0.1464   0.1500 
30    H11      7.0273   -0.4194    2.5051 H       1  LIG   0.0210   0.1500 
31    H12      5.4915   -1.4425    6.1831 H       1  LIG   0.0221   0.1500 
32    H13      4.3206   -3.4295    5.2596 H       1  LIG   0.1535   0.1500 
@<TRIPOS>BOND
1     1     6     ar
2     1     2     ar
3     1     21    1
4     2     3     ar
5     2     22    1
6     3     4     ar
7     3     23    1
8     4     10    1
9     4     5     ar
10    5     6     ar
11    5     7     1
12    6     24    1
13    7     8     1
14    7     25    1
15    7     26    1
16    8     9     1
17    8     27    1
18    8     28    1
19    9     13    1
20    9     10    2
21    10    11    1
22    11    12    1
23    11    20    1
24    12    13    2
25    13    14    1
26    14    19    ar
27    14    15    ar
28    15    16    ar
29    15    29    1
30    16    17    ar
31    16    30    1
32    17    18    ar
33    18    19    ar
34    18    31    1
35    19    32    1
@<TRIPOS>SUBSTRUCTURE
1   LIG    1    
 
########## Number      : 908
########## Name        : ZINC00023576
########## Description : AM1BCC_CHARGES =   0.0003 ORIGINAL_CHARGES =  -0.0000

@<TRIPOS>MOLECULE
ZINC00023576
30    33    1     0     0    
SMALL
USER_CHARGES
****
****
@<TRIPOS>ATOM
1     C1       4.3735   -9.3907   -0.9944 C.ar    1  LIG  -0.1217  -0.1500 
2     C2       3.1625   -9.2111   -0.3273 C.ar    1  LIG  -0.1245  -0.1500 
3     C3       2.9925   -8.1295    0.5354 C.ar    1  LIG  -0.1183  -0.1500 
4     C4       4.0496   -7.2188    0.7296 C.ar    1  LIG  -0.0260   0.0000 
5     C5       5.2835   -7.3922    0.0580 C.ar    1  LIG  -0.0126   0.0000 
6     C6       5.4256   -8.4904   -0.8042 C.ar    1  LIG  -0.1179  -0.1500 
7     C7       6.3269   -6.4795    0.2657 C.ar    1  LIG  -0.1445  -0.1500 
8     C8       6.1793   -5.3841    1.1278 C.ar    1  LIG  -0.0635  -0.1500 
9     C9       4.9561   -5.1886    1.7983 C.ar    1  LIG  -0.2015   0.0000 
10    C10      3.9283   -6.1050    1.5943 C.ar    1  LIG  -0.0544  -0.1516 
11    N1       2.9033   -5.6615    2.3834 N.pl3   1  LIG   0.0116   0.2996 
12    N2       3.1749   -4.5515    3.0803 N.2     1  LIG  -0.5082  -0.7068 
13    C11      4.4293   -4.2335    2.7251 C.2     1  LIG   0.3822   0.2348 
14    C12      5.0787   -3.0478    3.2775 C.ar    1  LIG  -0.0504   0.0540 
15    C13      5.8349   -2.1997    2.4659 C.ar    1  LIG  -0.2352  -0.1500 
16    C14      6.4236   -1.0861    3.0468 C.ar    1  LIG   0.3894   0.1600 
17    N3       6.3117   -0.7642    4.3535 N.ar    1  LIG  -0.6619  -0.6200 
18    C15      5.5689   -1.5969    5.1138 C.ar    1  LIG   0.3892   0.1600 
19    C16      4.9382   -2.7341    4.6324 C.ar    1  LIG  -0.2212  -0.1500 
20    H1       1.9876   -6.0780    2.4961 H       1  LIG   0.3282   0.2700 
21    H2       4.5009  -10.2356   -1.6657 H       1  LIG   0.1356   0.1500 
22    H3       2.3499   -9.9157   -0.4805 H       1  LIG   0.1356   0.1500 
23    H4       2.0407   -8.0082    1.0450 H       1  LIG   0.1259   0.1500 
24    H5       6.3593   -8.6568   -1.3376 H       1  LIG   0.1366   0.1500 
25    H6       7.2799   -6.6108   -0.2441 H       1  LIG   0.1364   0.1500 
26    H7       7.0126   -4.7023    1.2712 H       1  LIG   0.1430   0.1500 
27    H8       5.9594   -2.3790    1.4032 H       1  LIG   0.1482   0.1500 
28    H9       7.0178   -0.3994    2.4523 H       1  LIG   0.0221   0.1500 
29    H10      5.4890   -1.3190    6.1599 H       1  LIG   0.0231   0.1500 
30    H11      4.3591   -3.3574    5.3066 H       1  LIG   0.1550   0.1500 
@<TRIPOS>BOND
1     1     6     ar
2     1     2     ar
3     1     21    1
4     2     3     ar
5     2     22    1
6     3     4     ar
7     3     23    1
8     4     10    ar
9     4     5     ar
10    5     6     ar
11    5     7     ar
12    6     24    1
13    7     8     ar
14    7     25    1
15    8     9     ar
16    8     26    1
17    9     13    1
18    9     10    ar
19    10    11    1
20    11    12    1
21    11    20    1
22    12    13    2
23    13    14    1
24    14    19    ar
25    14    15    ar
26    15    16    ar
27    15    27    1
28    16    17    ar
29    16    28    1
30    17    18    ar
31    18    19    ar
32    18    29    1
33    19    30    1
@<TRIPOS>SUBSTRUCTURE
1   LIG    1    
 
########## Number      : 909
########## Name        : ZINC00023582
########## Description : AM1BCC_CHARGES =  -1.0002 ORIGINAL_CHARGES =  -1.0000

@<TRIPOS>MOLECULE
ZINC00023582
24    26    1     0     0    
SMALL
USER_CHARGES
****
****
@<TRIPOS>ATOM
1     C1       4.2867   -7.1195    4.2675 C.ar    1  LIG  -0.1564  -0.1500 
2     C2       4.4031   -5.7467    4.4725 C.ar    1  LIG  -0.1513  -0.1500 
3     C3       4.1820   -4.8609    3.4184 C.ar    1  LIG  -0.1108  -0.1500 
4     C4       3.8397   -5.3489    2.1407 C.ar    1  LIG   0.0143   0.0000 
5     C5       3.7205   -6.7464    1.9289 C.ar    1  LIG  -0.0516   0.0000 
6     C6       3.9484   -7.6164    3.0069 C.ar    1  LIG  -0.1226  -0.1500 
7     C7       3.3804   -7.2324    0.6596 C.ar    1  LIG  -0.1604  -0.1500 
8     C8       3.1522   -6.3716   -0.4179 C.ar    1  LIG  -0.0978  -0.1500 
9     C9       3.2736   -4.9974   -0.1932 C.ar    1  LIG  -0.1087  -0.1516 
10    C10      3.6100   -4.4583    1.0513 C.ar    1  LIG  -0.0929   0.0000 
11    C11      3.6366   -3.0385    0.8879 C.2     1  LIG  -0.2006  -0.1500 
12    C12      3.3226   -2.7574   -0.4230 C.2     1  LIG  -0.0860  -0.3836 
13    N1       3.1057   -3.9459   -1.0654 N.pl3   1  LIG  -0.1399   0.0332 
14    C13      3.2280   -1.4224   -1.0556 C.2     1  LIG   0.9285   1.0320 
15    O1       2.9212   -1.4093   -2.2865 O.co2   1  LIG  -0.8357  -0.9000 
16    H1       2.8578   -4.0331   -2.0416 H       1  LIG   0.3081   0.2700 
17    H2       4.4597   -7.8067    5.0909 H       1  LIG   0.1105   0.1500 
18    H3       4.6666   -5.3652    5.4549 H       1  LIG   0.1141   0.1500 
19    H4       4.2788   -3.7941    3.6035 H       1  LIG   0.1356   0.1500 
20    H5       3.8643   -8.6932    2.8748 H       1  LIG   0.1127   0.1500 
21    H6       3.2874   -8.3040    0.4907 H       1  LIG   0.1115   0.1500 
22    H7       2.8896   -6.7630   -1.3954 H       1  LIG   0.1170   0.1500 
23    H8       3.8619   -2.3047    1.6506 H       1  LIG   0.1580   0.1500 
24    O2       3.4600   -0.4179   -0.3175 O.co2   1  LIG  -0.7958  -0.9000 
@<TRIPOS>BOND
1     1     6     ar
2     1     2     ar
3     1     17    1
4     2     3     ar
5     2     18    1
6     3     4     ar
7     3     19    1
8     4     10    ar
9     4     5     ar
10    5     6     ar
11    5     7     ar
12    6     20    1
13    7     8     ar
14    7     21    1
15    8     9     ar
16    8     22    1
17    9     13    1
18    9     10    ar
19    10    11    1
20    11    12    2
21    11    23    1
22    12    13    1
23    12    14    1
24    13    16    1
25    14    15    2
26    14    24    1
@<TRIPOS>SUBSTRUCTURE
1   LIG    1    
 
########## Number      : 910
########## Name        : ZINC00023810
########## Description : AM1BCC_CHARGES =   0.0002 ORIGINAL_CHARGES =   0.0000

@<TRIPOS>MOLECULE
ZINC00023810
21    22    1     0     0    
SMALL
USER_CHARGES
****
****
@<TRIPOS>ATOM
1     C1       3.3897   -8.9763   -0.0800 C.ar    1  LIG   0.2949   0.1600 
2     C2       4.1148   -7.9685   -0.6723 C.ar    1  LIG   0.2686   0.1600 
3     N1       3.7929   -6.6678   -0.5147 N.ar    1  LIG  -0.5833  -0.6200 
4     C3       2.7148   -6.3825    0.2584 C.ar    1  LIG   0.2334   0.3100 
5     C4       1.9970   -7.4151    0.8469 C.ar    1  LIG   0.3297   0.1600 
6     N2       2.3171   -8.7198    0.6908 N.ar    1  LIG  -0.6426  -0.6200 
7     C5       2.3725   -4.9666    0.4241 C.ar    1  LIG   0.6837   0.6200 
8     N3       3.1462   -4.0609   -0.1977 N.ar    1  LIG  -0.7834  -0.6200 
9     C6       2.8008   -2.7767   -0.0218 C.ar    1  LIG   0.9354   0.7200 
10    N4       1.7529   -2.3850    0.7227 N.ar    1  LIG  -0.8537  -0.6200 
11    C7       1.0321   -3.3554    1.3096 C.ar    1  LIG   0.9430   0.7200 
12    N5       1.3084   -4.6628    1.1859 N.ar    1  LIG  -0.8383  -0.6200 
13    N6      -0.0522   -2.9874    2.0823 N.pl3   1  LIG  -0.9632  -0.9000 
14    N7       3.5635   -1.8047   -0.6396 N.pl3   1  LIG  -0.9589  -0.9000 
15    H1      -0.2783   -2.0092    2.1892 H       1  LIG   0.4505   0.4000 
16    H2      -0.6088   -3.6987    2.5332 H       1  LIG   0.4508   0.4000 
17    H3       4.3553   -2.0774   -1.2036 H       1  LIG   0.4547   0.4000 
18    H4       3.3226   -0.8315   -0.5216 H       1  LIG   0.4496   0.4000 
19    H5       3.6488  -10.0201   -0.2070 H       1  LIG   0.0349   0.1500 
20    H6       4.9784   -8.1727   -1.2931 H       1  LIG   0.0365   0.1500 
21    H7       1.1288   -7.2372    1.4726 H       1  LIG   0.0579   0.1500 
@<TRIPOS>BOND
1     1     6     ar
2     1     2     ar
3     1     19    1
4     2     3     ar
5     2     20    1
6     3     4     ar
7     4     5     ar
8     4     7     1
9     5     6     ar
10    5     21    1
11    7     12    ar
12    7     8     ar
13    8     9     ar
14    9     10    ar
15    9     14    1
16    10    11    ar
17    11    12    ar
18    11    13    1
19    13    15    1
20    13    16    1
21    14    17    1
22    14    18    1
@<TRIPOS>SUBSTRUCTURE
1   LIG    1    
 
########## Number      : 911
########## Name        : ZINC00023825
########## Description : AM1BCC_CHARGES =   0.0001 ORIGINAL_CHARGES =   0.0000

@<TRIPOS>MOLECULE
ZINC00023825
22    24    1     0     0    
SMALL
USER_CHARGES
****
****
@<TRIPOS>ATOM
1     C1      -0.7991    0.8949    2.6217 C.2     1  LIG  -0.1047  -0.1500 
2     C2       0.4062    0.2594    2.8261 C.2     1  LIG  -0.2051  -0.1100 
3     S1       1.5449    0.6321    1.6050 S.3     1  LIG   0.1951  -0.0800 
4     C3       0.4344    1.6426    0.7990 C.2     1  LIG  -0.2010  -0.0450 
5     C4      -0.7921    1.7030    1.4431 C.2     1  LIG  -0.1552  -0.0860 
6     C5      -1.8952    2.5113    0.9269 C.2     1  LIG   0.6271   0.7420 
7     O1      -2.9872    2.5825    1.4771 O.2     1  LIG  -0.5191  -0.5700 
8     C6      -1.5739    3.2270   -0.3063 C.2     1  LIG  -0.1597  -0.0860 
9     C7      -2.4382    4.0901   -1.0474 C.2     1  LIG  -0.0880  -0.1500 
10    C8      -1.8302    4.6119   -2.1724 C.2     1  LIG  -0.1577  -0.1400 
11    S2      -0.2168    4.0586   -2.3278 S.3     1  LIG   0.2270  -0.0800 
12    C9      -0.3289    3.1287   -0.9064 C.2     1  LIG  -0.2041  -0.0450 
13    C10      0.7955    2.3383   -0.4274 C.2     1  LIG   0.6575   0.7400 
14    O2       1.8895    2.2688   -0.9775 O.2     1  LIG  -0.5373  -0.5700 
15    C11     -2.4104    5.5407   -3.1822 C.3     1  LIG   0.2076   0.4600 
16    O3      -3.0599    4.7393   -4.1582 O.3     1  LIG  -0.5928  -0.6800 
17    H1      -3.4422    5.3453   -4.8154 H       1  LIG   0.4047   0.4000 
18    H2      -1.6458    0.7842    3.2880 H       1  LIG   0.1761   0.1500 
19    H3       0.6719   -0.4065    3.6352 H       1  LIG   0.1809   0.1500 
20    H4      -3.4609    4.3161   -0.7698 H       1  LIG   0.1765   0.1500 
21    H5      -3.1492    6.2049   -2.7221 H       1  LIG   0.0424   0.0000 
22    H6      -1.6459    6.1525   -3.6715 H       1  LIG   0.0299   0.0000 
@<TRIPOS>BOND
1     1     5     1
2     1     2     2
3     1     18    1
4     2     3     1
5     2     19    1
6     3     4     1
7     4     13    1
8     4     5     2
9     5     6     1
10    6     7     2
11    6     8     1
12    8     12    2
13    8     9     1
14    9     10    2
15    9     20    1
16    10    11    1
17    10    15    1
18    11    12    1
19    12    13    1
20    13    14    2
21    15    16    1
22    15    21    1
23    15    22    1
24    16    17    1
@<TRIPOS>SUBSTRUCTURE
1   LIG    1    
 
########## Number      : 912
########## Name        : ZINC00023890
########## Description : AM1BCC_CHARGES =  -0.0002 ORIGINAL_CHARGES =   0.0000

@<TRIPOS>MOLECULE
ZINC00023890
32    34    1     0     0    
SMALL
USER_CHARGES
****
****
@<TRIPOS>ATOM
1     C1       7.1275  -11.3522    0.5107 C.3     1  LIG  -0.0511   0.1435 
2     C2       6.8245   -9.9221    0.8414 C.ar    1  LIG  -0.1027  -0.1435 
3     C3       5.7233   -9.5959    1.6409 C.ar    1  LIG  -0.0960  -0.1500 
4     C4       5.4544   -8.2653    1.9787 C.ar    1  LIG  -0.1972  -0.1500 
5     C5       6.2924   -7.2441    1.5275 C.ar    1  LIG   0.1125   0.0825 
6     C6       7.4018   -7.5694    0.7414 C.ar    1  LIG  -0.1437  -0.1500 
7     C7       7.6700   -8.8979    0.4044 C.ar    1  LIG  -0.0990  -0.1500 
8     O1       6.1409   -5.9083    1.7868 O.3     1  LIG  -0.3241  -0.3625 
9     C8       5.0125   -5.5294    2.5667 C.3     1  LIG   0.1017   0.3410 
10    C9       5.0945   -4.0407    2.6818 C.2     1  LIG   0.3683   0.5300 
11    N1       5.6528   -3.4214    3.6743 N.2     1  LIG  -0.1995  -0.5120 
12    N2       5.5721   -2.0761    3.4559 N.am    1  LIG  -0.2841  -0.0580 
13    C10      6.0824   -1.1817    4.3525 C.2     1  LIG   0.6040   0.6300 
14    O2       6.6472   -1.4054    5.4107 O.2     1  LIG  -0.5395  -0.5700 
15    C11      5.8795    0.2423    3.9001 C.2     1  LIG   0.3014   0.3890 
16    N3       5.2890    0.5605    2.7893 N.2     1  LIG  -0.2865  -0.4500 
17    N4       4.8000   -0.4420    1.9363 N.2     1  LIG  -0.0969  -0.4500 
18    C12      4.9642   -1.6638    2.3060 C.2     1  LIG   0.0914   0.6510 
19    S1       4.4353   -3.0472    1.3996 S.3     1  LIG  -0.0745  -0.2820 
20    C13      6.3993    1.3226    4.8054 C.3     1  LIG  -0.1235   0.0610 
21    H1       6.2067  -11.9412    0.4429 H       1  LIG   0.0429   0.0000 
22    H2       7.6343  -11.4309   -0.4569 H       1  LIG   0.0441   0.0000 
23    H3       7.7696  -11.7871    1.2827 H       1  LIG   0.0476   0.0000 
24    H4       5.0631  -10.3782    2.0083 H       1  LIG   0.1351   0.1500 
25    H5       4.5855   -8.0651    2.5977 H       1  LIG   0.1344   0.1500 
26    H6       8.0685   -6.7867    0.3872 H       1  LIG   0.1522   0.1500 
27    H7       8.5430   -9.1259   -0.2020 H       1  LIG   0.1377   0.1500 
28    H8       4.0756   -5.8126    2.0742 H       1  LIG   0.0595   0.0000 
29    H9       5.0710   -5.9627    3.5716 H       1  LIG   0.0811   0.0000 
30    H10      6.1977    2.3091    4.3787 H       1  LIG   0.0716   0.0000 
31    H11      5.9083    1.2519    5.7798 H       1  LIG   0.0660   0.0000 
32    H12      7.4791    1.2063    4.9322 H       1  LIG   0.0666   0.0000 
@<TRIPOS>BOND
1     1     2     1
2     1     21    1
3     1     22    1
4     1     23    1
5     2     7     ar
6     2     3     ar
7     3     4     ar
8     3     24    1
9     4     5     ar
10    4     25    1
11    5     6     ar
12    5     8     1
13    6     7     ar
14    6     26    1
15    7     27    1
16    8     9     1
17    9     10    1
18    9     28    1
19    9     29    1
20    10    19    1
21    10    11    2
22    11    12    1
23    12    18    1
24    12    13    am
25    13    14    2
26    13    15    1
27    15    16    2
28    15    20    1
29    16    17    1
30    17    18    2
31    18    19    1
32    20    30    1
33    20    31    1
34    20    32    1
@<TRIPOS>SUBSTRUCTURE
1   LIG    1    
 
########## Number      : 913
########## Name        : ZINC00023894
########## Description : AM1BCC_CHARGES =  -0.0003 ORIGINAL_CHARGES =   0.0000

@<TRIPOS>MOLECULE
ZINC00023894
33    36    1     0     0    
SMALL
USER_CHARGES
****
****
@<TRIPOS>ATOM
1     C1      -0.7197    4.9867   -0.5551 C.ar    1  LIG  -0.1498  -0.1500 
2     C2      -0.6814    3.6267   -0.2842 C.ar    1  LIG  -0.0897  -0.1500 
3     C3      -1.8532    2.9590    0.0682 C.ar    1  LIG  -0.1739  -0.1500 
4     C4      -3.0868    3.6335    0.1406 C.ar    1  LIG   0.0990   0.1170 
5     C5      -3.1197    5.0256   -0.0886 C.ar    1  LIG  -0.0819   0.0530 
6     C6      -1.9255    5.6802   -0.4525 C.ar    1  LIG  -0.0969  -0.1500 
7     C7      -4.3333    5.8218    0.1007 C.2     1  LIG   0.0206  -0.2046 
8     C8      -5.6498    5.4390   -0.0659 C.2     1  LIG  -0.1184  -0.1810 
9     C9      -6.4825    6.5502    0.2704 C.ar    1  LIG  -0.0999   0.0000 
10    C10     -7.8773    6.7661    0.2936 C.ar    1  LIG  -0.0076  -0.1500 
11    C11     -8.3525    8.0246    0.6947 C.ar    1  LIG  -0.2058   0.1330 
12    C12     -7.4872    9.0554    1.0664 C.ar    1  LIG  -0.0573  -0.1500 
13    C13     -6.1054    8.8505    1.0454 C.ar    1  LIG  -0.1536  -0.1500 
14    C14     -5.6363    7.5936    0.6438 C.ar    1  LIG  -0.0040  -0.1516 
15    N1      -4.3471    7.1273    0.5335 N.pl3   1  LIG  -0.1753   0.0332 
16    N2      -9.7918    8.2596    0.7234 N.pl3   1  LIG   0.3170   0.9070 
17    O1     -10.5025    7.5640   -0.0150 O.2     1  LIG  -0.2138  -0.5200 
18    O2     -10.2154    9.1405    1.4842 O.3     1  LIG  -0.2140  -0.5200 
19    C15     -6.0536    4.0978   -0.5364 C.3     1  LIG  -0.0703   0.2420 
20    C16     -5.5446    3.0121    0.3791 C.2     1  LIG   0.7048   0.5690 
21    O3      -6.3422    2.2388    0.9194 O.2     1  LIG  -0.6201  -0.5700 
22    N3      -4.1888    2.8226    0.5127 N.am    1  LIG  -0.4748  -0.5470 
23    H1      -3.5265    7.6712    0.7609 H       1  LIG   0.3088   0.2700 
24    H2      -3.9425    1.9350    0.9436 H       1  LIG   0.3271   0.3700 
25    H3       0.1883    5.5131   -0.8350 H       1  LIG   0.1419   0.1500 
26    H4       0.2564    3.0828   -0.3497 H       1  LIG   0.1414   0.1500 
27    H5      -1.7961    1.8904    0.2681 H       1  LIG   0.1425   0.1500 
28    H6      -1.9156    6.7485   -0.6589 H       1  LIG   0.1344   0.1500 
29    H7      -8.5522    5.9631    0.0121 H       1  LIG   0.1742   0.1500 
30    H8      -7.8603   10.0305    1.3706 H       1  LIG   0.1699   0.1500 
31    H9      -5.4213    9.6434    1.3304 H       1  LIG   0.1485   0.1500 
32    H10     -7.1448    4.0156   -0.5928 H       1  LIG   0.0952   0.0000 
33    H11     -5.6693    3.9127   -1.5467 H       1  LIG   0.0815   0.0000 
@<TRIPOS>BOND
1     1     6     ar
2     1     2     ar
3     1     25    1
4     2     3     ar
5     2     26    1
6     3     4     ar
7     3     27    1
8     4     22    1
9     4     5     ar
10    5     6     ar
11    5     7     1
12    6     28    1
13    7     15    1
14    7     8     2
15    8     9     1
16    8     19    1
17    9     14    ar
18    9     10    ar
19    10    11    ar
20    10    29    1
21    11    12    ar
22    11    16    1
23    12    13    ar
24    12    30    1
25    13    14    ar
26    13    31    1
27    14    15    1
28    15    23    1
29    16    17    2
30    16    18    1
31    19    20    1
32    19    32    1
33    19    33    1
34    20    21    2
35    20    22    am
36    22    24    1
@<TRIPOS>SUBSTRUCTURE
1   LIG    1    
 
########## Number      : 914
########## Name        : ZINC00024006
########## Description : AM1BCC_CHARGES =   0.0003 ORIGINAL_CHARGES =   0.0000

@<TRIPOS>MOLECULE
ZINC00024006
22    23    1     0     0    
SMALL
USER_CHARGES
****
****
@<TRIPOS>ATOM
1     C1       2.2227   -3.7890    1.2857 C.ar    1  LIG  -0.0628  -0.1500 
2     C2       2.1709   -3.4684    2.6484 C.ar    1  LIG  -0.1316  -0.1500 
3     C3       3.1700   -3.9122    3.5122 C.ar    1  LIG   0.0560   0.1770 
4     C4       4.2129   -4.6733    2.9845 C.ar    1  LIG  -0.1555   0.1330 
5     C5       4.2783   -5.0069    1.6261 C.ar    1  LIG  -0.0696  -0.1500 
6     C6       3.2706   -4.5643    0.7587 C.ar    1  LIG  -0.1054   0.0540 
7     C7       3.2871   -4.8749   -0.6683 C.2     1  LIG   0.4100   0.1732 
8     C8       3.9963   -5.9138   -1.2392 C.2     1  LIG  -0.2600  -0.1100 
9     S1       3.7447   -5.9378   -2.9338 S.3     1  LIG  -0.0901  -0.0800 
10    C9       2.7037   -4.5723   -2.7961 C.2     1  LIG   0.6144   0.4621 
11    N1       2.5483   -4.1214   -1.5700 N.2     1  LIG  -0.6893  -0.5653 
12    N2       2.1198   -4.0486   -3.8904 N.pl3   1  LIG  -0.8908  -0.8840 
13    N3       5.2787   -5.1485    3.8330 N.pl3   1  LIG   0.3118   0.9070 
14    O1       6.0949   -4.3095    4.2344 O.2     1  LIG  -0.1830  -0.5200 
15    O2       5.3000   -6.3612    4.0777 O.3     1  LIG  -0.1968  -0.5200 
16    Cl1      3.0480   -3.5114    5.1856 Cl      1  LIG  -0.0423  -0.1770 
17    H1       2.2711   -4.4333   -4.8163 H       1  LIG   0.3984   0.4000 
18    H2       1.5041   -3.2452   -3.8288 H       1  LIG   0.4084   0.4000 
19    H3       1.4222   -3.4270    0.6428 H       1  LIG   0.1684   0.1500 
20    H4       1.3392   -2.8729    3.0176 H       1  LIG   0.1614   0.1500 
21    H5       5.1173   -5.5928    1.2586 H       1  LIG   0.1623   0.1500 
22    H6       4.6319   -6.6534   -0.7733 H       1  LIG   0.1864   0.1500 
@<TRIPOS>BOND
1     1     6     ar
2     1     2     ar
3     1     19    1
4     2     3     ar
5     2     20    1
6     3     4     ar
7     3     16    1
8     4     5     ar
9     4     13    1
10    5     6     ar
11    5     21    1
12    6     7     1
13    7     11    1
14    7     8     2
15    8     9     1
16    8     22    1
17    9     10    1
18    10    11    2
19    10    12    1
20    12    17    1
21    12    18    1
22    13    14    2
23    13    15    1
@<TRIPOS>SUBSTRUCTURE
1   LIG    1    
 
########## Number      : 915
########## Name        : ZINC00024079
########## Description : AM1BCC_CHARGES =   1.0000 ORIGINAL_CHARGES =   1.0000

@<TRIPOS>MOLECULE
ZINC00024079
29    29    1     0     0    
SMALL
USER_CHARGES
****
****
@<TRIPOS>ATOM
1     C1       3.9243   -8.2787   -1.5823 C.ar    1  LIG  -0.0963  -0.1500 
2     C2       3.1190   -8.5347   -0.4742 C.ar    1  LIG  -0.1146  -0.1500 
3     C3       3.0671   -7.6205    0.5793 C.ar    1  LIG  -0.1093  -0.1500 
4     C4       3.8204   -6.4393    0.5327 C.ar    1  LIG  -0.1371  -0.1435 
5     C5       4.6287   -6.1931   -0.5859 C.ar    1  LIG  -0.1247  -0.1500 
6     C6       4.6793   -7.1089   -1.6380 C.ar    1  LIG  -0.1153  -0.1500 
7     C7       3.7582   -5.4450    1.6663 C.3     1  LIG  -0.0441   0.1435 
8     C8       2.9748   -4.1627    1.3236 C.3     1  LIG   0.1186   0.5030 
9     C9       1.4771   -4.4360    1.1332 C.3     1  LIG   0.0977   0.2800 
10    O1       0.8376   -3.1879    0.7609 O.3     1  LIG  -0.4702  -0.4300 
11    C10     -0.4963   -3.0872    0.5150 C.2     1  LIG   0.5605   0.5900 
12    S1      -1.5846   -4.3394    0.6196 S.2     1  LIG  -0.4500  -0.3800 
13    N1      -0.8540   -1.8163    0.1674 N.pl3   1  LIG  -0.5822  -0.8000 
14    H1      -1.8171   -1.5821   -0.0470 H       1  LIG   0.3629   0.3700 
15    H2      -0.1677   -1.0729    0.1081 H       1  LIG   0.3289   0.3700 
16    H3       2.6146   -2.3355    2.2522 H       1  LIG   0.4712   0.4500 
17    H4       2.8003   -3.5795    3.3313 H       1  LIG   0.4561   0.4500 
18    H5       3.9642   -8.9910   -2.4014 H       1  LIG   0.1558   0.1500 
19    H6       2.5308   -9.4470   -0.4303 H       1  LIG   0.1553   0.1500 
20    H7       2.4316   -7.8368    1.4345 H       1  LIG   0.1399   0.1500 
21    H8       5.2266   -5.2869   -0.6449 H       1  LIG   0.1239   0.1500 
22    H9       5.3086   -6.9100   -2.5008 H       1  LIG   0.1518   0.1500 
23    H10      3.3265   -5.9218    2.5565 H       1  LIG   0.0762   0.0000 
24    H11      4.7901   -5.1877    1.9419 H       1  LIG   0.0705   0.0000 
25    H12      3.3819   -3.7275    0.3955 H       1  LIG   0.1250   0.0000 
26    H13      1.3217   -5.1569    0.3243 H       1  LIG   0.1219   0.0000 
27    H14      1.0325   -4.8117    2.0621 H       1  LIG   0.1111   0.0000 
28    N2       3.1397   -3.2017    2.4362 N.4     1  LIG  -0.8419  -0.8530 
29    H15      4.1251   -2.9359    2.5658 H       1  LIG   0.4584   0.4500 
@<TRIPOS>BOND
1     1     6     ar
2     1     2     ar
3     1     18    1
4     2     3     ar
5     2     19    1
6     3     4     ar
7     3     20    1
8     4     5     ar
9     4     7     1
10    5     6     ar
11    5     21    1
12    6     22    1
13    7     8     1
14    7     23    1
15    7     24    1
16    8     9     1
17    8     25    1
18    8     28    1
19    9     10    1
20    9     26    1
21    9     27    1
22    10    11    1
23    11    12    2
24    11    13    1
25    13    14    1
26    13    15    1
27    16    28    1
28    17    28    1
29    28    29    1
@<TRIPOS>SUBSTRUCTURE
1   LIG    1    
 
########## Number      : 916
########## Name        : ZINC00024096
########## Description : AM1BCC_CHARGES =  -0.0001 ORIGINAL_CHARGES =   0.0000

@<TRIPOS>MOLECULE
ZINC00024096
27    27    1     0     0    
SMALL
USER_CHARGES
****
****
@<TRIPOS>ATOM
1     C1       5.0013   -9.0003    0.3070 C.ar    1  LIG  -0.1173  -0.1500 
2     C2       5.1199   -8.2086   -0.8340 C.ar    1  LIG  -0.1353  -0.1500 
3     C3       4.0469   -7.4204   -1.2530 C.ar    1  LIG  -0.1026  -0.1500 
4     C4       2.8421   -7.4234   -0.5373 C.ar    1  LIG  -0.1002  -0.1435 
5     C5       2.7368   -8.2144    0.6146 C.ar    1  LIG  -0.1029  -0.1500 
6     C6       3.8110   -9.0019    1.0320 C.ar    1  LIG  -0.1352  -0.1500 
7     C7       1.6943   -6.5565   -0.9740 C.3     1  LIG   0.1996   0.4235 
8     O1       1.8295   -5.2786   -0.3369 O.3     1  LIG  -0.4355  -0.4300 
9     C8       0.8582   -4.3689   -0.6316 C.2     1  LIG   0.7442   0.7800 
10    O2      -0.0894   -4.5724   -1.3822 O.2     1  LIG  -0.5991  -0.5700 
11    N1       1.1049   -3.1944    0.0394 N.am    1  LIG  -0.5524  -0.7301 
12    C9       0.2452   -2.0382   -0.0790 C.3     1  LIG   0.0415   0.3611 
13    C10      0.7494   -0.9162    0.8038 C.2     1  LIG   0.6488   0.5690 
14    O3       1.8105   -0.9543    1.4203 O.2     1  LIG  -0.6081  -0.5700 
15    N2      -0.1005    0.1657    0.8281 N.am    1  LIG  -0.6715  -0.8000 
16    H1       1.9286   -3.1437    0.6316 H       1  LIG   0.3575   0.3700 
17    H2       0.1290    0.9850    1.3800 H       1  LIG   0.3236   0.3700 
18    H3      -0.9719    0.1888    0.3093 H       1  LIG   0.3120   0.3700 
19    H4       5.8371   -9.6125    0.6329 H       1  LIG   0.1323   0.1500 
20    H5       6.0492   -8.2028   -1.3964 H       1  LIG   0.1335   0.1500 
21    H6       4.1568   -6.8027   -2.1410 H       1  LIG   0.1355   0.1500 
22    H7       1.8171   -8.2208    1.1945 H       1  LIG   0.1355   0.1500 
23    H8       3.7198   -9.6146    1.9243 H       1  LIG   0.1335   0.1500 
24    H9       1.7056   -6.4332   -2.0638 H       1  LIG   0.0605   0.0000 
25    H10      0.7410   -7.0172   -0.6875 H       1  LIG   0.0616   0.0000 
26    H11      0.2375   -1.7128   -1.1242 H       1  LIG   0.0675   0.0000 
27    H12     -0.7696   -2.3245    0.2157 H       1  LIG   0.0729   0.0000 
@<TRIPOS>BOND
1     1     6     ar
2     1     2     ar
3     1     19    1
4     2     3     ar
5     2     20    1
6     3     4     ar
7     3     21    1
8     4     5     ar
9     4     7     1
10    5     6     ar
11    5     22    1
12    6     23    1
13    7     8     1
14    7     24    1
15    7     25    1
16    8     9     1
17    9     10    2
18    9     11    am
19    11    12    1
20    11    16    1
21    12    13    1
22    12    26    1
23    12    27    1
24    13    14    2
25    13    15    am
26    15    17    1
27    15    18    1
@<TRIPOS>SUBSTRUCTURE
1   LIG    1    
 
########## Number      : 917
########## Name        : ZINC00024139
########## Description : AM1BCC_CHARGES =  -0.0002 ORIGINAL_CHARGES =   0.0000

@<TRIPOS>MOLECULE
ZINC00024139
39    41    1     0     0    
SMALL
USER_CHARGES
****
****
@<TRIPOS>ATOM
1     C1      -3.5047    3.2727    0.8292 C.3     1  LIG  -0.0325   0.1382 
2     C2      -2.0716    3.6928    0.8876 C.2     1  LIG  -0.2498  -0.1238 
3     C3      -1.0443    2.8349    0.8738 C.2     1  LIG   0.0273  -0.0410 
4     N1       0.2802    3.2229    0.9301 N.am    1  LIG  -0.3722  -0.4691 
5     C4       0.6416    4.5786    0.9401 C.2     1  LIG   0.8091   0.6900 
6     O1       1.8013    4.9941    0.9200 O.2     1  LIG  -0.6239  -0.5700 
7     N2      -0.4311    5.4664    0.9721 N.am    1  LIG  -0.5843  -0.4900 
8     C5      -1.7748    5.1457    0.9621 C.2     1  LIG   0.7154   0.6156 
9     O2      -2.6687    5.9860    1.0036 O.2     1  LIG  -0.6038  -0.5700 
10    C6       1.3237    2.1881    0.9100 C.3     1  LIG   0.0888   0.3001 
11    C7       1.7817    1.6005    2.2967 C.3     1  LIG   0.1870   0.4235 
12    C8       0.6769    0.7912    2.9873 C.3     1  LIG  -0.0726   0.1382 
13    C9       0.9003   -0.5372    2.3654 C.2     1  LIG  -0.2097  -0.1238 
14    C10      0.0203   -1.5195    2.1642 C.2     1  LIG  -0.1150  -0.3000 
15    C11      2.3099   -0.6132    1.9287 C.2     1  LIG   0.7186   0.7056 
16    O3       2.9094   -1.6032    1.5524 O.2     1  LIG  -0.5513  -0.5700 
17    O4       2.8307    0.6450    2.0472 O.3     1  LIG  -0.4097  -0.4300 
18    C12      2.3087    2.7417    3.1697 C.ar    1  LIG  -0.1027  -0.1435 
19    C13      3.6523    3.1463    3.0702 C.ar    1  LIG  -0.0771  -0.1500 
20    C14      4.1486    4.1988    3.8433 C.ar    1  LIG  -0.1208  -0.1500 
21    C15      3.3031    4.8666    4.7244 C.ar    1  LIG   0.0304   0.1770 
22    C16      1.9672    4.4920    4.8366 C.ar    1  LIG  -0.1270  -0.1500 
23    C17      1.4745    3.4383    4.0625 C.ar    1  LIG  -0.1141  -0.1500 
24    Cl1      3.9106    6.1667    5.6753 Cl      1  LIG  -0.0872  -0.1770 
25    H1      -0.1986    6.4535    1.0010 H       1  LIG   0.3557   0.3700 
26    H2      -3.6089    2.1840    0.7722 H       1  LIG   0.0354   0.0000 
27    H3      -4.0396    3.6113    1.7225 H       1  LIG   0.0619   0.0000 
28    H4      -3.9934    3.7001   -0.0524 H       1  LIG   0.0607   0.0000 
29    H5      -1.2247    1.7663    0.8103 H       1  LIG   0.1614   0.1500 
30    H6       0.9975    1.3790    0.2423 H       1  LIG   0.0647   0.0000 
31    H7       2.2075    2.6083    0.4097 H       1  LIG   0.1163   0.0000 
32    H8       0.8682    0.6883    4.0635 H       1  LIG   0.0862   0.0000 
33    H9      -0.3334    1.1812    2.8611 H       1  LIG   0.0676   0.0000 
34    H10      0.3043   -2.4472    1.6781 H       1  LIG   0.1440   0.1500 
35    H11     -1.0108   -1.4163    2.4857 H       1  LIG   0.1282   0.1500 
36    H12      4.3292    2.6493    2.3788 H       1  LIG   0.1591   0.1500 
37    H13      5.1914    4.4877    3.7430 H       1  LIG   0.1533   0.1500 
38    H14      1.2974    5.0122    5.5162 H       1  LIG   0.1497   0.1500 
39    H15      0.4227    3.1805    4.1590 H       1  LIG   0.1327   0.1500 
@<TRIPOS>BOND
1     1     2     1
2     1     26    1
3     1     27    1
4     1     28    1
5     2     8     1
6     2     3     2
7     3     4     1
8     3     29    1
9     4     5     am
10    4     10    1
11    5     6     2
12    5     7     am
13    7     8     am
14    7     25    1
15    8     9     2
16    10    11    1
17    10    30    1
18    10    31    1
19    11    17    1
20    11    12    1
21    11    18    1
22    12    13    1
23    12    32    1
24    12    33    1
25    13    14    2
26    13    15    1
27    14    34    1
28    14    35    1
29    15    16    2
30    15    17    1
31    18    23    ar
32    18    19    ar
33    19    20    ar
34    19    36    1
35    20    21    ar
36    20    37    1
37    21    22    ar
38    21    24    1
39    22    23    ar
40    22    38    1
41    23    39    1
@<TRIPOS>SUBSTRUCTURE
1   LIG    1    
 
########## Number      : 918
########## Name        : ZINC00024140
########## Description : AM1BCC_CHARGES =  -0.0003 ORIGINAL_CHARGES =   0.0000

@<TRIPOS>MOLECULE
ZINC00024140
42    45    1     0     0    
SMALL
USER_CHARGES
****
****
@<TRIPOS>ATOM
1     C1       7.2310  -11.7717    0.7784 C.2     1  LIG  -0.1142  -0.3000 
2     C2       6.3121  -11.0544    1.4277 C.2     1  LIG  -0.2036  -0.1238 
3     C3       6.1471   -9.5793    1.4620 C.3     1  LIG  -0.0639   0.1382 
4     C4       4.6442   -9.4862    1.7564 C.3     1  LIG   0.2046   0.4235 
5     O1       4.3367  -10.6727    2.5128 O.3     1  LIG  -0.4137  -0.4300 
6     C5       5.2289  -11.6665    2.2232 C.2     1  LIG   0.7207   0.7056 
7     O2       5.1449  -12.8277    2.5783 O.2     1  LIG  -0.5545  -0.5700 
8     C6       4.3290   -8.2487    2.6320 C.3     1  LIG   0.1207   0.2800 
9     O3       4.8715   -7.0669    2.0432 O.3     1  LIG  -0.3220  -0.3567 
10    C7       4.6713   -5.8662    2.6860 C.2     1  LIG   0.2447   0.0483 
11    C8       4.0107   -5.6782    3.8388 C.2     1  LIG  -0.3628  -0.1356 
12    C9       3.8422   -4.3495    4.4541 C.2     1  LIG   0.7394   0.7056 
13    O4       3.2332   -4.2155    5.5099 O.2     1  LIG  -0.5660  -0.5700 
14    O5       4.4000   -3.2714    3.7857 O.3     1  LIG  -0.3275  -0.2325 
15    C10      5.1002   -3.4416    2.5761 C.ar    1  LIG   0.1654   0.0825 
16    C11      5.2551   -4.7042    2.0057 C.ar    1  LIG  -0.1565   0.0284 
17    C12      5.9673   -4.7962    0.8021 C.ar    1  LIG  -0.0567  -0.1500 
18    C13      6.4998   -3.6514    0.1995 C.ar    1  LIG  -0.1657  -0.1500 
19    C14      6.3288   -2.4004    0.7913 C.ar    1  LIG  -0.0762  -0.1500 
20    C15      5.6256   -2.2907    1.9871 C.ar    1  LIG  -0.1525  -0.1500 
21    C16      3.7611   -9.4216    0.4966 C.ar    1  LIG  -0.1129  -0.1435 
22    C17      2.5701  -10.1668    0.4153 C.ar    1  LIG  -0.0989  -0.1500 
23    C18      1.7520  -10.1018   -0.7158 C.ar    1  LIG  -0.1318  -0.1500 
24    C19      2.1011   -9.2825   -1.7844 C.ar    1  LIG  -0.1176  -0.1500 
25    C20      3.2649   -8.5231   -1.7194 C.ar    1  LIG  -0.1329  -0.1500 
26    C21      4.0840   -8.5884   -0.5889 C.ar    1  LIG  -0.1161  -0.1500 
27    H1       8.0015  -11.2849    0.1899 H       1  LIG   0.1285   0.1500 
28    H2       7.2382  -12.8561    0.8167 H       1  LIG   0.1422   0.1500 
29    H3       6.7378   -9.1918    2.3015 H       1  LIG   0.0817   0.0000 
30    H4       6.4836   -9.0849    0.5487 H       1  LIG   0.0829   0.0000 
31    H5       3.2425   -8.1501    2.7602 H       1  LIG   0.0771   0.0000 
32    H6       4.7697   -8.3972    3.6271 H       1  LIG   0.0670   0.0000 
33    H7       3.5585   -6.4947    4.3896 H       1  LIG   0.1768   0.1500 
34    H8       6.1214   -5.7549    0.3132 H       1  LIG   0.1471   0.1500 
35    H9       7.0495   -3.7381   -0.7338 H       1  LIG   0.1412   0.1500 
36    H10      6.7441   -1.5144    0.3200 H       1  LIG   0.1426   0.1500 
37    H11      5.4903   -1.3189    2.4524 H       1  LIG   0.1628   0.1500 
38    H12      2.2566  -10.8087    1.2352 H       1  LIG   0.1561   0.1500 
39    H13      0.8395  -10.6899   -0.7580 H       1  LIG   0.1378   0.1500 
40    H14      1.4643   -9.2306   -2.6625 H       1  LIG   0.1349   0.1500 
41    H15      3.5358   -7.8734   -2.5469 H       1  LIG   0.1346   0.1500 
42    H16      4.9733   -7.9646   -0.5699 H       1  LIG   0.1369   0.1500 
@<TRIPOS>BOND
1     1     2     2
2     1     27    1
3     1     28    1
4     2     6     1
5     2     3     1
6     3     4     1
7     3     29    1
8     3     30    1
9     4     5     1
10    4     8     1
11    4     21    1
12    5     6     1
13    6     7     2
14    8     9     1
15    8     31    1
16    8     32    1
17    9     10    1
18    10    16    1
19    10    11    2
20    11    12    1
21    11    33    1
22    12    13    2
23    12    14    1
24    14    15    1
25    15    20    ar
26    15    16    ar
27    16    17    ar
28    17    18    ar
29    17    34    1
30    18    19    ar
31    18    35    1
32    19    20    ar
33    19    36    1
34    20    37    1
35    21    26    ar
36    21    22    ar
37    22    23    ar
38    22    38    1
39    23    24    ar
40    23    39    1
41    24    25    ar
42    24    40    1
43    25    26    ar
44    25    41    1
45    26    42    1
@<TRIPOS>SUBSTRUCTURE
1   LIG    1    
 
########## Number      : 919
########## Name        : ZINC00024141
########## Description : AM1BCC_CHARGES =   0.0000 ORIGINAL_CHARGES =   0.0000

@<TRIPOS>MOLECULE
ZINC00024141
35    37    1     0     0    
SMALL
USER_CHARGES
****
****
@<TRIPOS>ATOM
1     C1       2.9225    6.7863    3.4550 C.3     1  LIG  -0.1040   0.0000 
2     C2       2.1991    6.8538    4.8020 C.3     1  LIG   0.1490   0.2800 
3     C3       0.7657    6.3421    4.6842 C.3     1  LIG  -0.0625   0.1382 
4     C4       0.6201    5.6230    5.9732 C.2     1  LIG  -0.1951  -0.1238 
5     C5      -0.5057    5.2972    6.6117 C.2     1  LIG  -0.1196  -0.3000 
6     C6       1.9618    5.3355    6.5196 C.2     1  LIG   0.7234   0.7056 
7     O1       2.2261    4.6337    7.4787 O.2     1  LIG  -0.5606  -0.5700 
8     O2       2.8675    5.9899    5.7346 O.3     1  LIG  -0.4079  -0.4300 
9     C7       2.2691    8.3156    5.3152 C.3     1  LIG   0.1217   0.2800 
10    O3       1.5276    8.4476    6.5310 O.3     1  LIG  -0.3231  -0.3625 
11    C8       1.4857    9.6862    7.1109 C.ar    1  LIG   0.1778   0.0825 
12    C9       2.1172   10.8381    6.6299 C.ar    1  LIG  -0.2293  -0.1500 
13    C10      1.9977   12.0526    7.3182 C.ar    1  LIG  -0.0352  -0.1500 
14    C11      1.2467   12.1250    8.4920 C.ar    1  LIG  -0.1904   0.0284 
15    C12      1.0929   13.3602    9.2413 C.2     1  LIG  -0.0031  -0.1784 
16    C13      0.3632   13.3772   10.3598 C.2     1  LIG  -0.2597  -0.1356 
17    C14     -0.3062   12.1688   10.8755 C.2     1  LIG   0.7202   0.7056 
18    O4      -0.9724   12.2043   11.9041 O.2     1  LIG  -0.5614  -0.5700 
19    O5      -0.1439   10.9992   10.1410 O.3     1  LIG  -0.3238  -0.2325 
20    C15      0.6246   10.9730    8.9596 C.ar    1  LIG   0.1851   0.0825 
21    C16      0.7339    9.7574    8.2868 C.ar    1  LIG  -0.1836  -0.1500 
22    H1       2.9654    5.7543    3.0881 H       1  LIG   0.0598   0.0000 
23    H2       2.4283    7.4042    2.6984 H       1  LIG   0.0461   0.0000 
24    H3       3.9622    7.1184    3.5541 H       1  LIG   0.0585   0.0000 
25    H4       0.0342    7.1432    4.5405 H       1  LIG   0.0848   0.0000 
26    H5       0.6608    5.6228    3.8636 H       1  LIG   0.0693   0.0000 
27    H6      -0.4904    4.7830    7.5671 H       1  LIG   0.1417   0.1500 
28    H7      -1.4743    5.5413    6.1883 H       1  LIG   0.1264   0.1500 
29    H8       1.8498    8.9880    4.5562 H       1  LIG   0.0490   0.0000 
30    H9       3.3179    8.5729    5.5103 H       1  LIG   0.0689   0.0000 
31    H10      2.7121   10.8281    5.7217 H       1  LIG   0.1436   0.1500 
32    H11      2.4982   12.9339    6.9239 H       1  LIG   0.1404   0.1500 
33    H12      1.5770   14.2606    8.8795 H       1  LIG   0.1466   0.1500 
34    H13      0.2396   14.2915   10.9294 H       1  LIG   0.1699   0.1500 
35    H14      0.2372    8.8723    8.6754 H       1  LIG   0.1771   0.1500 
@<TRIPOS>BOND
1     1     2     1
2     1     22    1
3     1     23    1
4     1     24    1
5     2     8     1
6     2     3     1
7     2     9     1
8     3     4     1
9     3     25    1
10    3     26    1
11    4     5     2
12    4     6     1
13    5     27    1
14    5     28    1
15    6     7     2
16    6     8     1
17    9     10    1
18    9     29    1
19    9     30    1
20    10    11    1
21    11    21    ar
22    11    12    ar
23    12    13    ar
24    12    31    1
25    13    14    ar
26    13    32    1
27    14    20    ar
28    14    15    1
29    15    16    2
30    15    33    1
31    16    17    1
32    16    34    1
33    17    18    2
34    17    19    1
35    19    20    1
36    20    21    ar
37    21    35    1
@<TRIPOS>SUBSTRUCTURE
1   LIG    1    
 
########## Number      : 920
########## Name        : ZINC00024169
########## Description : AM1BCC_CHARGES =   0.0002 ORIGINAL_CHARGES =   0.0000

@<TRIPOS>MOLECULE
ZINC00024169
43    46    1     0     0    
SMALL
USER_CHARGES
****
****
@<TRIPOS>ATOM
1     C1      -8.5108    5.9627    4.5581 C.3     1  LIG  -0.1000   0.0000 
2     C2      -7.0058    5.7326    4.4195 C.3     1  LIG  -0.0978   0.0000 
3     C3      -6.5776    4.4648    3.5986 C.3     1  LIG   0.1267   0.4845 
4     C4      -7.1382    4.6468    2.1738 C.2     1  LIG   0.5918   0.5940 
5     O1      -8.2801    4.2474    1.9218 O.2     1  LIG  -0.5226  -0.5700 
6     C5      -6.3548    5.3177    1.1414 C.2     1  LIG  -0.2064  -0.2366 
7     C6      -6.7637    5.3806   -0.1878 C.2     1  LIG  -0.1055  -0.1500 
8     C7      -5.8548    6.1649   -0.9104 C.2     1  LIG  -0.2080  -0.1500 
9     C8      -4.8973    6.5736   -0.0189 C.2     1  LIG  -0.1216  -0.3016 
10    N1      -5.1704    6.0509    1.2377 N.pl3   1  LIG   0.0377   0.3262 
11    C9      -4.3476    6.2640    2.3810 C.ar    1  LIG  -0.0167  -0.0230 
12    C10     -3.4411    7.3397    2.4011 C.ar    1  LIG  -0.1384  -0.1500 
13    C11     -2.5880    7.5405    3.4903 C.ar    1  LIG  -0.1209  -0.1500 
14    C12     -2.6155    6.6643    4.5677 C.ar    1  LIG  -0.1255  -0.1500 
15    C13     -3.5049    5.5949    4.5576 C.ar    1  LIG  -0.1187  -0.1500 
16    C14     -4.3831    5.4088    3.4808 C.ar    1  LIG   0.0892   0.0825 
17    O2      -5.1566    4.2960    3.5511 O.3     1  LIG  -0.3230  -0.3625 
18    C15     -7.0598    3.1341    4.2212 C.ar    1  LIG  -0.0678  -0.1435 
19    C16     -7.3610    2.9997    5.5862 C.ar    1  LIG  -0.1132  -0.1500 
20    C17     -7.7324    1.7661    6.1284 C.ar    1  LIG  -0.1352  -0.1500 
21    C18     -7.7900    0.6319    5.3237 C.ar    1  LIG  -0.1181  -0.1500 
22    C19     -7.4714    0.7202    3.9678 C.ar    1  LIG  -0.0790  -0.1435 
23    C20     -7.0859    1.9606    3.4364 C.ar    1  LIG  -0.0879  -0.1500 
24    C21     -7.4726   -0.5057    3.1047 C.3     1  LIG  -0.0539   0.1435 
25    H1      -8.6916    6.8220    5.2127 H       1  LIG   0.0382   0.0000 
26    H2      -8.9686    6.1923    3.5913 H       1  LIG   0.0541   0.0000 
27    H3      -9.0319    5.1051    4.9890 H       1  LIG   0.0510   0.0000 
28    H4      -6.6079    6.6419    3.9524 H       1  LIG   0.0548   0.0000 
29    H5      -6.5488    5.7089    5.4167 H       1  LIG   0.0586   0.0000 
30    H6      -7.6545    4.9108   -0.5851 H       1  LIG   0.1725   0.1500 
31    H7      -5.8870    6.4093   -1.9628 H       1  LIG   0.1605   0.1500 
32    H8      -4.0162    7.1702   -0.2092 H       1  LIG   0.1720   0.1500 
33    H9      -3.3840    8.0643    1.5939 H       1  LIG   0.1432   0.1500 
34    H10     -1.8994    8.3809    3.4911 H       1  LIG   0.1402   0.1500 
35    H11     -1.9458    6.8105    5.4097 H       1  LIG   0.1417   0.1500 
36    H12     -3.5170    4.9028    5.3963 H       1  LIG   0.1559   0.1500 
37    H13     -7.3046    3.8450    6.2651 H       1  LIG   0.1319   0.1500 
38    H14     -7.9664    1.6905    7.1869 H       1  LIG   0.1308   0.1500 
39    H15     -8.0716   -0.3209    5.7642 H       1  LIG   0.1315   0.1500 
40    H16     -6.7941    2.0045    2.3882 H       1  LIG   0.1419   0.1500 
41    H17     -8.2031   -1.2378    3.4647 H       1  LIG   0.0419   0.0000 
42    H18     -7.7452   -0.2563    2.0738 H       1  LIG   0.0477   0.0000 
43    H19     -6.4801   -0.9665    3.1076 H       1  LIG   0.0466   0.0000 
@<TRIPOS>BOND
1     1     2     1
2     1     25    1
3     1     26    1
4     1     27    1
5     2     3     1
6     2     28    1
7     2     29    1
8     3     17    1
9     3     4     1
10    3     18    1
11    4     5     2
12    4     6     1
13    6     10    1
14    6     7     2
15    7     8     1
16    7     30    1
17    8     9     2
18    8     31    1
19    9     10    1
20    9     32    1
21    10    11    1
22    11    16    ar
23    11    12    ar
24    12    13    ar
25    12    33    1
26    13    14    ar
27    13    34    1
28    14    15    ar
29    14    35    1
30    15    16    ar
31    15    36    1
32    16    17    1
33    18    23    ar
34    18    19    ar
35    19    20    ar
36    19    37    1
37    20    21    ar
38    20    38    1
39    21    22    ar
40    21    39    1
41    22    23    ar
42    22    24    1
43    23    40    1
44    24    41    1
45    24    42    1
46    24    43    1
@<TRIPOS>SUBSTRUCTURE
1   LIG    1    
 
########## Number      : 921
########## Name        : ZINC00024215
########## Description : AM1BCC_CHARGES =   0.0000 ORIGINAL_CHARGES =   0.0000

@<TRIPOS>MOLECULE
ZINC00024215
22    24    1     0     0    
SMALL
USER_CHARGES
****
****
@<TRIPOS>ATOM
1     C1       4.2486   -6.5384    1.6869 C.ar    1  LIG  -0.1497  -0.1500 
2     C2       3.9676   -7.1487    0.4646 C.ar    1  LIG  -0.0751  -0.1500 
3     C3       3.0205   -6.5968   -0.4129 C.ar    1  LIG  -0.0628   0.0000 
4     C4       2.7320   -7.2050   -1.6452 C.ar    1  LIG  -0.0751  -0.1500 
5     C5       1.7897   -6.6504   -2.5113 C.ar    1  LIG  -0.1497  -0.1500 
6     C6       1.1219   -5.4809   -2.1603 C.ar    1  LIG  -0.0345  -0.1500 
7     C7       1.3994   -4.8643   -0.9359 C.ar    1  LIG  -0.1545   0.0862 
8     C8       2.3453   -5.4073   -0.0492 C.ar    1  LIG   0.0190   0.0000 
9     C9       2.6426   -4.8077    1.1868 C.ar    1  LIG  -0.1545   0.0862 
10    C10      3.5885   -5.3685    2.0513 C.ar    1  LIG  -0.0345  -0.1500 
11    C11      1.9441   -3.5641    1.5793 C.2     1  LIG   0.7208   0.5438 
12    O1       2.1784   -3.0138    2.6499 O.2     1  LIG  -0.6118  -0.5700 
13    N1       1.0223   -3.0765    0.6635 N.am    1  LIG  -0.5898  -0.4900 
14    C12      0.6865   -3.6214   -0.5680 C.2     1  LIG   0.7208   0.5438 
15    O2      -0.1449   -3.1196   -1.3170 O.2     1  LIG  -0.6118  -0.5700 
16    H1       0.5380   -2.2234    0.9244 H       1  LIG   0.3420   0.3700 
17    H2       4.9841   -6.9775    2.3554 H       1  LIG   0.1454   0.1500 
18    H3       4.4969   -8.0627    0.2025 H       1  LIG   0.1406   0.1500 
19    H4       3.2408   -8.1199   -1.9423 H       1  LIG   0.1406   0.1500 
20    H5       1.5772   -7.1327   -3.4615 H       1  LIG   0.1454   0.1500 
21    H6       0.3911   -5.0635   -2.8479 H       1  LIG   0.1646   0.1500 
22    H7       3.8206   -4.9072    3.0076 H       1  LIG   0.1646   0.1500 
@<TRIPOS>BOND
1     1     10    ar
2     1     2     ar
3     1     17    1
4     2     3     ar
5     2     18    1
6     3     8     ar
7     3     4     ar
8     4     5     ar
9     4     19    1
10    5     6     ar
11    5     20    1
12    6     7     ar
13    6     21    1
14    7     14    1
15    7     8     ar
16    8     9     ar
17    9     10    ar
18    9     11    1
19    10    22    1
20    11    12    2
21    11    13    am
22    13    14    am
23    13    16    1
24    14    15    2
@<TRIPOS>SUBSTRUCTURE
1   LIG    1    
 
########## Number      : 922
########## Name        : ZINC00024246
########## Description : AM1BCC_CHARGES =   0.0002 ORIGINAL_CHARGES =   0.0000

@<TRIPOS>MOLECULE
ZINC00024246
28    30    1     0     0    
SMALL
USER_CHARGES
****
****
@<TRIPOS>ATOM
1     C1       4.9830   -9.4971   -0.4718 C.ar    1  LIG  -0.1187  -0.1500 
2     C2       3.9931   -8.7842   -1.1421 C.ar    1  LIG  -0.1261  -0.1500 
3     C3       3.6130   -7.5164   -0.6921 C.ar    1  LIG  -0.1228  -0.1500 
4     C4       4.2180   -6.9424    0.4376 C.ar    1  LIG  -0.0445   0.0530 
5     C5       5.2168   -7.6746    1.0992 C.ar    1  LIG  -0.1063  -0.1500 
6     C6       5.5952   -8.9423    0.6484 C.ar    1  LIG  -0.1259  -0.1500 
7     C7       3.8297   -5.6101    0.9202 C.2     1  LIG   0.0038  -0.2046 
8     C8       4.5180   -4.6987    1.7062 C.2     1  LIG  -0.1539  -0.1500 
9     C9       3.7016   -3.5505    1.9019 C.ar    1  LIG  -0.1167   0.0000 
10    C10      3.8714   -2.3340    2.5938 C.ar    1  LIG  -0.0056  -0.1500 
11    C11      2.8183   -1.4061    2.5728 C.ar    1  LIG  -0.2110   0.1330 
12    C12      1.6253   -1.6594    1.8914 C.ar    1  LIG  -0.0578  -0.1500 
13    C13      1.4526   -2.8639    1.2036 C.ar    1  LIG  -0.1552  -0.1500 
14    C14      2.5065   -3.7856    1.2273 C.ar    1  LIG  -0.0055  -0.1516 
15    N1       2.6082   -5.0295    0.6478 N.pl3   1  LIG  -0.1790   0.0332 
16    N2       2.9766   -0.1423    3.2840 N.pl3   1  LIG   0.3172   0.9070 
17    O1       4.1293    0.2653    3.4821 O.2     1  LIG  -0.2178  -0.5200 
18    O2       1.9487    0.4462    3.6465 O.3     1  LIG  -0.2164  -0.5200 
19    H1       1.8721   -5.4600    0.1065 H       1  LIG   0.3065   0.2700 
20    H2       5.2776  -10.4819   -0.8223 H       1  LIG   0.1374   0.1500 
21    H3       3.5161   -9.2125   -2.0193 H       1  LIG   0.1367   0.1500 
22    H4       2.8455   -6.9862   -1.2503 H       1  LIG   0.1279   0.1500 
23    H5       5.7111   -7.2750    1.9816 H       1  LIG   0.1409   0.1500 
24    H6       6.3679   -9.4956    1.1747 H       1  LIG   0.1385   0.1500 
25    H7       5.5170   -4.8368    2.0989 H       1  LIG   0.1661   0.1500 
26    H8       4.7977   -2.1437    3.1279 H       1  LIG   0.1724   0.1500 
27    H9       0.8150   -0.9344    1.8734 H       1  LIG   0.1688   0.1500 
28    H10      0.5315   -3.0727    0.6691 H       1  LIG   0.1472   0.1500 
@<TRIPOS>BOND
1     1     6     ar
2     1     2     ar
3     1     20    1
4     2     3     ar
5     2     21    1
6     3     4     ar
7     3     22    1
8     4     5     ar
9     4     7     1
10    5     6     ar
11    5     23    1
12    6     24    1
13    7     15    1
14    7     8     2
15    8     9     1
16    8     25    1
17    9     14    ar
18    9     10    ar
19    10    11    ar
20    10    26    1
21    11    12    ar
22    11    16    1
23    12    13    ar
24    12    27    1
25    13    14    ar
26    13    28    1
27    14    15    1
28    15    19    1
29    16    17    2
30    16    18    1
@<TRIPOS>SUBSTRUCTURE
1   LIG    1    
 
########## Number      : 923
########## Name        : ZINC00024318
########## Description : AM1BCC_CHARGES =  -0.0000 ORIGINAL_CHARGES =   0.0000

@<TRIPOS>MOLECULE
ZINC00024318
19    20    1     0     0    
SMALL
USER_CHARGES
****
****
@<TRIPOS>ATOM
1     C1       2.1265   -8.7172   -0.8479 C.ar    1  LIG  -0.1116  -0.1500 
2     C2       1.0155   -8.0122   -0.3768 C.ar    1  LIG  -0.1192  -0.1500 
3     C3       1.2145   -6.7213    0.0673 C.ar    1  LIG   0.0681   0.0825 
4     C4       2.4587   -6.1330    0.0535 C.ar    1  LIG   0.0453   0.0825 
5     C5       3.5763   -6.8005   -0.4048 C.ar    1  LIG  -0.0779  -0.1500 
6     C6       3.3986   -8.1120   -0.8606 C.ar    1  LIG  -0.1333   0.0862 
7     C7       4.5354   -8.8996   -1.3674 C.2     1  LIG   0.4052   0.3038 
8     N1       5.7371   -8.4242   -1.4153 N.2     1  LIG  -0.4400  -0.5130 
9     O1       6.5850   -9.4038   -1.9396 O.3     1  LIG  -0.3556  -0.3370 
10    O2       2.4332   -4.8595    0.5332 O.3     1  LIG  -0.3325  -0.3625 
11    C8       1.0339   -4.7126    0.8503 C.3     1  LIG   0.3208   0.5600 
12    O3       0.2547   -5.8903    0.5571 O.3     1  LIG  -0.3325  -0.3625 
13    H1       7.4437   -8.9472   -1.9302 H       1  LIG   0.4409   0.4000 
14    H2       1.9926   -9.7362   -1.2028 H       1  LIG   0.1406   0.1500 
15    H3       0.0320   -8.4683   -0.3625 H       1  LIG   0.1577   0.1500 
16    H4       4.5456   -6.3148   -0.4054 H       1  LIG   0.1714   0.1500 
17    H5       4.3188   -9.9281   -1.7104 H       1  LIG   0.0050   0.0600 
18    H6       0.9381   -4.4854    1.9182 H       1  LIG   0.0738   0.0000 
19    H7       0.6299   -3.8722    0.2741 H       1  LIG   0.0738   0.0000 
@<TRIPOS>BOND
1     1     6     ar
2     1     2     ar
3     1     14    1
4     2     3     ar
5     2     15    1
6     3     12    1
7     3     4     ar
8     4     5     ar
9     4     10    1
10    5     6     ar
11    5     16    1
12    6     7     1
13    7     8     2
14    7     17    1
15    8     9     1
16    9     13    1
17    10    11    1
18    11    12    1
19    11    18    1
20    11    19    1
@<TRIPOS>SUBSTRUCTURE
1   LIG    1    
 
########## Number      : 924
########## Name        : ZINC00024336
########## Description : AM1BCC_CHARGES =  -0.0000 ORIGINAL_CHARGES =   0.0000

@<TRIPOS>MOLECULE
ZINC00024336
37    39    1     0     0    
SMALL
USER_CHARGES
****
****
@<TRIPOS>ATOM
1     C1       7.1448   -8.4378   -0.6731 C.3     1  LIG   0.1208   0.2800 
2     O1       6.3249   -8.2518    0.4743 O.3     1  LIG  -0.3507  -0.3625 
3     C2       5.5254   -9.3043    0.8547 C.ar    1  LIG   0.0784   0.0825 
4     C3       5.4679  -10.5357    0.1913 C.ar    1  LIG  -0.1786  -0.1500 
5     C4       4.6248  -11.5447    0.6559 C.ar    1  LIG  -0.1212  -0.1500 
6     C5       3.8378  -11.3316    1.7829 C.ar    1  LIG  -0.1351  -0.1500 
7     C6       3.8864  -10.1077    2.4530 C.ar    1  LIG  -0.1311  -0.1500 
8     C7       4.7244   -9.0840    1.9972 C.ar    1  LIG   0.0468   0.1170 
9     N1       4.8263   -7.8175    2.6284 N.am    1  LIG  -0.4491  -0.5470 
10    C8       4.1196   -7.3564    3.7278 C.2     1  LIG   0.6868   0.5438 
11    O2       3.2213   -7.9312    4.3329 O.2     1  LIG  -0.6188  -0.5700 
12    C9       4.4901   -5.9860    4.1767 C.ar    1  LIG  -0.2084   0.0862 
13    C10      5.8321   -5.5782    4.1606 C.ar    1  LIG  -0.0512  -0.1500 
14    C11      6.2009   -4.2879    4.5813 C.ar    1  LIG  -0.0808   0.0000 
15    C12      7.5411   -3.8676    4.5628 C.ar    1  LIG  -0.1017  -0.1500 
16    C13      7.8921   -2.5837    4.9817 C.ar    1  LIG  -0.1391  -0.1500 
17    C14      6.9101   -1.7034    5.4253 C.ar    1  LIG  -0.1080  -0.1500 
18    C15      5.5742   -2.1047    5.4527 C.ar    1  LIG  -0.1304  -0.1500 
19    C16      5.2040   -3.3935    5.0348 C.ar    1  LIG   0.0152   0.0000 
20    C17      3.8658   -3.8142    5.0633 C.ar    1  LIG  -0.1720  -0.1500 
21    C18      3.5147   -5.0997    4.6467 C.ar    1  LIG   0.1775   0.0825 
22    O3       2.1847   -5.4173    4.7164 O.3     1  LIG  -0.5041  -0.5325 
23    H1       5.4862   -7.1867    2.1794 H       1  LIG   0.3371   0.3700 
24    H2       2.0744   -6.3635    4.5153 H       1  LIG   0.4545   0.4500 
25    H3       7.7087   -7.5137   -0.8328 H       1  LIG   0.0654   0.0000 
26    H4       7.8677   -9.2448   -0.5153 H       1  LIG   0.0350   0.0000 
27    H5       6.5382   -8.6153   -1.5673 H       1  LIG   0.0369   0.0000 
28    H6       6.0662  -10.7435   -0.6901 H       1  LIG   0.1381   0.1500 
29    H7       4.5838  -12.4988    0.1380 H       1  LIG   0.1349   0.1500 
30    H8       3.1838  -12.1204    2.1445 H       1  LIG   0.1380   0.1500 
31    H9       3.2583   -9.9953    3.3291 H       1  LIG   0.1768   0.1500 
32    H10      6.6099   -6.2675    3.8362 H       1  LIG   0.1404   0.1500 
33    H11      8.3261   -4.5384    4.2196 H       1  LIG   0.1326   0.1500 
34    H12      8.9324   -2.2718    4.9612 H       1  LIG   0.1350   0.1500 
35    H13      7.1831   -0.7040    5.7516 H       1  LIG   0.1347   0.1500 
36    H14      4.8229   -1.4011    5.8053 H       1  LIG   0.1385   0.1500 
37    H15      3.0875   -3.1397    5.4158 H       1  LIG   0.1569   0.1500 
@<TRIPOS>BOND
1     1     2     1
2     1     25    1
3     1     26    1
4     1     27    1
5     2     3     1
6     3     8     ar
7     3     4     ar
8     4     5     ar
9     4     28    1
10    5     6     ar
11    5     29    1
12    6     7     ar
13    6     30    1
14    7     8     ar
15    7     31    1
16    8     9     1
17    9     10    am
18    9     23    1
19    10    11    2
20    10    12    1
21    12    21    ar
22    12    13    ar
23    13    14    ar
24    13    32    1
25    14    19    ar
26    14    15    ar
27    15    16    ar
28    15    33    1
29    16    17    ar
30    16    34    1
31    17    18    ar
32    17    35    1
33    18    19    ar
34    18    36    1
35    19    20    ar
36    20    21    ar
37    20    37    1
38    21    22    1
39    22    24    1
@<TRIPOS>SUBSTRUCTURE
1   LIG    1    
 
########## Number      : 925
########## Name        : ZINC00024582
########## Description : AM1BCC_CHARGES =  -0.0000 ORIGINAL_CHARGES =   0.0000

@<TRIPOS>MOLECULE
ZINC00024582
36    37    1     0     0    
SMALL
USER_CHARGES
****
****
@<TRIPOS>ATOM
1     C1       6.2619   -7.9416    3.7124 C.3     1  LIG  -0.0542   0.1435 
2     C2       6.1138   -8.2687    2.2475 C.ar    1  LIG  -0.1043  -0.1435 
3     C3       6.5621   -9.5245    1.8079 C.ar    1  LIG  -0.1223  -0.1500 
4     C4       6.4775   -9.8772    0.4682 C.ar    1  LIG  -0.1328  -0.1500 
5     C5       5.9077   -8.9932   -0.4407 C.ar    1  LIG  -0.1249  -0.1500 
6     C6       5.4177   -7.7368   -0.0331 C.ar    1  LIG  -0.0557  -0.1435 
7     C7       5.5743   -7.3425    1.3154 C.ar    1  LIG   0.0478   0.1170 
8     N1       5.1852   -6.0748    1.8295 N.am    1  LIG  -0.4730  -0.5470 
9     C8       5.2457   -4.8511    1.1804 C.2     1  LIG   0.6782   0.5438 
10    O1       5.7155   -4.6176    0.0723 O.2     1  LIG  -0.5824  -0.5700 
11    C9       4.7163   -3.7025    1.9581 C.ar    1  LIG  -0.1800   0.0862 
12    C10      4.9443   -3.5703    3.3303 C.ar    1  LIG  -0.0777  -0.1500 
13    C11      4.4354   -2.4634    4.0139 C.ar    1  LIG  -0.1627  -0.1500 
14    C12      3.7049   -1.4788    3.3395 C.ar    1  LIG   0.1449   0.0825 
15    C13      3.4912   -1.6082    1.9654 C.ar    1  LIG  -0.2108  -0.1500 
16    C14      3.9991   -2.7138    1.2759 C.ar    1  LIG  -0.0435  -0.1500 
17    O2       3.2629   -0.4487    4.1263 O.3     1  LIG  -0.3246  -0.3625 
18    C15      2.5146    0.5754    3.4815 C.3     1  LIG   0.1121   0.2800 
19    C16      4.6889   -6.9432   -1.0835 C.3     1  LIG  -0.0599   0.1435 
20    H1       4.9585   -6.0634    2.8179 H       1  LIG   0.3143   0.3700 
21    H2       6.7717   -8.7440    4.2565 H       1  LIG   0.0474   0.0000 
22    H3       6.8584   -7.0328    3.8432 H       1  LIG   0.0435   0.0000 
23    H4       5.2775   -7.8078    4.1721 H       1  LIG   0.0368   0.0000 
24    H5       6.9926  -10.2342    2.5105 H       1  LIG   0.1312   0.1500 
25    H6       6.8351  -10.8469    0.1349 H       1  LIG   0.1323   0.1500 
26    H7       5.8157   -9.3039   -1.4798 H       1  LIG   0.1338   0.1500 
27    H8       5.5300   -4.2984    3.8838 H       1  LIG   0.1359   0.1500 
28    H9       4.6186   -2.3690    5.0819 H       1  LIG   0.1538   0.1500 
29    H10      2.9352   -0.8679    1.3987 H       1  LIG   0.1438   0.1500 
30    H11      3.8203   -2.7951    0.2062 H       1  LIG   0.1517   0.1500 
31    H12      2.2365    1.3134    4.2401 H       1  LIG   0.0701   0.0000 
32    H13      3.1174    1.0875    2.7243 H       1  LIG   0.0375   0.0000 
33    H14      1.5902    0.1770    3.0503 H       1  LIG   0.0357   0.0000 
34    H15      4.1769   -7.6131   -1.7847 H       1  LIG   0.0358   0.0000 
35    H16      3.9028   -6.3196   -0.6484 H       1  LIG   0.0437   0.0000 
36    H17      5.3895   -6.3319   -1.6588 H       1  LIG   0.0785   0.0000 
@<TRIPOS>BOND
1     1     2     1
2     1     21    1
3     1     22    1
4     1     23    1
5     2     7     ar
6     2     3     ar
7     3     4     ar
8     3     24    1
9     4     5     ar
10    4     25    1
11    5     6     ar
12    5     26    1
13    6     7     ar
14    6     19    1
15    7     8     1
16    8     9     am
17    8     20    1
18    9     10    2
19    9     11    1
20    11    16    ar
21    11    12    ar
22    12    13    ar
23    12    27    1
24    13    14    ar
25    13    28    1
26    14    15    ar
27    14    17    1
28    15    16    ar
29    15    29    1
30    16    30    1
31    17    18    1
32    18    31    1
33    18    32    1
34    18    33    1
35    19    34    1
36    19    35    1
37    19    36    1
@<TRIPOS>SUBSTRUCTURE
1   LIG    1    
 
########## Number      : 926
########## Name        : ZINC00024609
########## Description : AM1BCC_CHARGES =  -0.0000 ORIGINAL_CHARGES =  -0.0000

@<TRIPOS>MOLECULE
ZINC00024609
31    32    1     0     0    
SMALL
USER_CHARGES
****
****
@<TRIPOS>ATOM
1     C1       3.6763    8.3410   10.9669 C.2     1  LIG  -0.1488  -0.1500 
2     C2       3.3576    7.3624   10.0502 C.2     1  LIG  -0.1067  -0.3016 
3     N1       2.0494    7.5417    9.6805 N.pl3   1  LIG  -0.1761   0.0476 
4     C3       1.5234    8.6208   10.3460 C.ar    1  LIG   0.4865   0.1054 
5     C4       2.5201    9.1466   11.1626 C.ar    1  LIG  -0.3759   0.0000 
6     C5       2.1931   10.2718   11.9415 C.ar    1  LIG   0.7246   0.4100 
7     N2       0.9290   10.7650   11.8410 N.ar    1  LIG  -0.7859  -0.6200 
8     C6       0.0610   10.1550   11.0061 C.ar    1  LIG   0.6803   0.4700 
9     N3       0.2663    9.0825   10.2227 N.ar    1  LIG  -0.7401  -0.5670 
10    N4       3.1014   10.8777   12.7883 N.pl3   1  LIG  -0.9453  -0.9000 
11    C7       1.3367    6.7076    8.7301 C.3     1  LIG   0.2455   0.5356 
12    O1       1.4651    7.3161    7.4523 O.3     1  LIG  -0.4354  -0.5600 
13    C8       0.6999    6.6649    6.4335 C.3     1  LIG   0.0694   0.2800 
14    C9       0.4581    7.7051    5.3332 C.3     1  LIG   0.1181   0.2800 
15    O2      -0.4636    7.2440    4.3581 O.3     1  LIG  -0.6037  -0.6800 
16    C10      1.4556    5.4379    5.9067 C.3     1  LIG   0.1140   0.2800 
17    O3       0.6963    4.7157    4.9497 O.3     1  LIG  -0.6010  -0.6800 
18    H1       4.0450   10.5294   12.8779 H       1  LIG   0.4227   0.4000 
19    H2       2.8090   11.6841   13.3227 H       1  LIG   0.4311   0.4000 
20    H3      -1.3073    7.0709    4.8089 H       1  LIG   0.4058   0.4000 
21    H4      -0.1398    4.4539    5.3708 H       1  LIG   0.4190   0.4000 
22    H5       4.6405    8.4609   11.4416 H       1  LIG   0.1546   0.1500 
23    H6       3.9538    6.5616    9.6332 H       1  LIG   0.1732   0.1500 
24    H7      -0.9323   10.5887   10.9634 H       1  LIG   0.0497   0.1500 
25    H8       1.7878    5.7110    8.7463 H       1  LIG   0.0542   0.0000 
26    H9       0.2885    6.6480    9.0417 H       1  LIG   0.0785   0.0000 
27    H10     -0.2773    6.3536    6.8255 H       1  LIG   0.0551   0.0000 
28    H11      0.0674    8.6343    5.7636 H       1  LIG   0.0552   0.0000 
29    H12      1.3963    7.9653    4.8307 H       1  LIG   0.0793   0.0000 
30    H13      2.4027    5.7377    5.4448 H       1  LIG   0.0397   0.0000 
31    H14      1.7121    4.7505    6.7184 H       1  LIG   0.0624   0.0000 
@<TRIPOS>BOND
1     1     5     1
2     1     2     2
3     1     22    1
4     2     3     1
5     2     23    1
6     3     4     1
7     3     11    1
8     4     9     ar
9     4     5     ar
10    5     6     ar
11    6     7     ar
12    6     10    1
13    7     8     ar
14    8     9     ar
15    8     24    1
16    10    18    1
17    10    19    1
18    11    12    1
19    11    25    1
20    11    26    1
21    12    13    1
22    13    14    1
23    13    16    1
24    13    27    1
25    14    15    1
26    14    28    1
27    14    29    1
28    15    20    1
29    16    17    1
30    16    30    1
31    16    31    1
32    17    21    1
@<TRIPOS>SUBSTRUCTURE
1   LIG    1    
 
########## Number      : 927
########## Name        : ZINC00024612
########## Description : AM1BCC_CHARGES =  -0.0001 ORIGINAL_CHARGES =  -0.0000

@<TRIPOS>MOLECULE
ZINC00024612
31    33    1     0     0    
SMALL
USER_CHARGES
****
****
@<TRIPOS>ATOM
1     C1       3.4208   -4.0910   -1.4511 C.2     1  LIG   0.4027   0.0365 
2     N1       3.1843   -5.3767   -1.6155 N.2     1  LIG  -0.5836  -0.5653 
3     C2       3.2212   -5.8825   -0.3498 C.2     1  LIG   0.1731   0.1412 
4     C3       3.0297   -7.2426    0.0780 C.2     1  LIG   0.6512   0.7160 
5     O1       2.7945   -8.1753   -0.6806 O.2     1  LIG  -0.5971  -0.5700 
6     N2       3.1477   -7.3569    1.4664 N.am    1  LIG  -0.5096  -0.4900 
7     C4       3.4192   -6.2917    2.3439 C.2     1  LIG   0.6801   0.5600 
8     N3       3.5916   -5.0575    1.9318 N.2     1  LIG  -0.6772  -0.5760 
9     C5       3.4816   -4.9121    0.5910 C.2     1  LIG   0.1222  -0.0256 
10    N4       3.6066   -3.7560   -0.1287 N.pl3   1  LIG  -0.2188   0.0476 
11    C6       3.8901   -2.4106    0.3438 C.3     1  LIG   0.2586   0.5356 
12    C7       5.3414   -2.2099    0.7885 C.3     1  LIG  -0.1064   0.0000 
13    C8       5.2462   -2.1422    2.2959 C.3     1  LIG  -0.0981   0.0000 
14    C9       3.8526   -1.5652    2.4893 C.3     1  LIG   0.1360   0.2800 
15    O2       3.0423   -2.1164    1.4545 O.3     1  LIG  -0.4178  -0.5600 
16    C10      3.2621   -1.9135    3.8493 C.3     1  LIG   0.1197   0.2800 
17    O3       2.0663   -1.1647    4.0425 O.3     1  LIG  -0.6068  -0.6800 
18    N5       3.4943   -6.6222    3.6681 N.pl3   1  LIG  -0.8951  -0.8500 
19    H1       3.0274   -8.2820    1.8633 H       1  LIG   0.3342   0.3700 
20    H2       1.6993   -1.4310    4.9026 H       1  LIG   0.4034   0.4000 
21    H3       3.3616   -7.5721    3.9935 H       1  LIG   0.4112   0.4000 
22    H4       3.6854   -5.9109    4.3646 H       1  LIG   0.4287   0.4000 
23    H5       3.4700   -3.3582   -2.2455 H       1  LIG   0.0679   0.1500 
24    H6       3.6881   -1.7270   -0.4957 H       1  LIG   0.0820   0.0000 
25    H7       6.0320   -2.9823    0.4364 H       1  LIG   0.0818   0.0000 
26    H8       5.7047   -1.2465    0.4094 H       1  LIG   0.0602   0.0000 
27    H9       5.3227   -3.1494    2.7193 H       1  LIG   0.0662   0.0000 
28    H10      6.0281   -1.5263    2.7495 H       1  LIG   0.0585   0.0000 
29    H11      3.9073   -0.4680    2.3922 H       1  LIG   0.0875   0.0000 
30    H12      3.0062   -2.9758    3.9120 H       1  LIG   0.0532   0.0000 
31    H13      3.9567   -1.6572    4.6553 H       1  LIG   0.0320   0.0000 
@<TRIPOS>BOND
1     1     10    1
2     1     2     2
3     1     23    1
4     2     3     1
5     3     9     2
6     3     4     1
7     4     5     2
8     4     6     am
9     6     7     1
10    6     19    1
11    7     8     2
12    7     18    1
13    8     9     1
14    9     10    1
15    10    11    1
16    11    15    1
17    11    12    1
18    11    24    1
19    12    13    1
20    12    25    1
21    12    26    1
22    13    14    1
23    13    27    1
24    13    28    1
25    14    15    1
26    14    16    1
27    14    29    1
28    16    17    1
29    16    30    1
30    16    31    1
31    17    20    1
32    18    21    1
33    18    22    1
@<TRIPOS>SUBSTRUCTURE
1   LIG    1    
 
########## Number      : 928
########## Name        : ZINC00024749
########## Description : AM1BCC_CHARGES =  -0.0001 ORIGINAL_CHARGES =  -0.0000

@<TRIPOS>MOLECULE
ZINC00024749
30    32    1     0     0    
SMALL
USER_CHARGES
****
****
@<TRIPOS>ATOM
1     C1       5.0369   -9.9889    0.3995 C.ar    1  LIG  -0.1195  -0.1500 
2     C2       4.6118   -9.2237   -0.6850 C.ar    1  LIG  -0.1313  -0.1500 
3     C3       4.5136   -7.8364   -0.5665 C.ar    1  LIG  -0.1105  -0.1500 
4     C4       4.8446   -7.2005    0.6387 C.ar    1  LIG  -0.0897  -0.1435 
5     C5       5.2652   -7.9811    1.7250 C.ar    1  LIG  -0.1104  -0.1500 
6     C6       5.3626   -9.3683    1.6040 C.ar    1  LIG  -0.1314  -0.1500 
7     C7       4.7229   -5.7048    0.7730 C.3     1  LIG   0.0202   0.3735 
8     S1       3.0578   -5.2278    1.3493 S.3     1  LIG  -0.2323  -0.3315 
9     C8       3.1961   -3.4330    1.4173 C.ar    1  LIG   0.5400   0.4115 
10    C9       2.1057   -2.6323    1.8255 C.ar    1  LIG  -0.2593   0.0000 
11    C10      0.8249   -3.1048    2.2157 C.ar    1  LIG  -0.0905  -0.1500 
12    C11     -0.1834   -2.2244    2.6020 C.ar    1  LIG  -0.1338  -0.1500 
13    C12      0.0659   -0.8609    2.6063 C.ar    1  LIG  -0.1062  -0.1500 
14    C13      1.3209   -0.3859    2.2247 C.ar    1  LIG  -0.1763  -0.1500 
15    C14      2.3449   -1.2441    1.8347 C.ar    1  LIG   0.4228   0.3100 
16    N1       3.5242   -0.7157    1.4813 N.ar    1  LIG  -0.6915  -0.6200 
17    C15      4.4849   -1.5752    1.1119 C.ar    1  LIG   0.6501   0.4700 
18    N2       4.3884   -2.9093    1.0593 N.ar    1  LIG  -0.7372  -0.6200 
19    H1       5.1123  -11.0685    0.3066 H       1  LIG   0.1338   0.1500 
20    H2       4.3548   -9.7074   -1.6231 H       1  LIG   0.1348   0.1500 
21    H3       4.1761   -7.2541   -1.4205 H       1  LIG   0.1374   0.1500 
22    H4       5.5187   -7.5126    2.6729 H       1  LIG   0.1371   0.1500 
23    H5       5.6909   -9.9646    2.4506 H       1  LIG   0.1347   0.1500 
24    H6       5.4769   -5.3390    1.4796 H       1  LIG   0.0880   0.0000 
25    H7       4.9277   -5.2332   -0.1951 H       1  LIG   0.0890   0.0000 
26    H8       0.5960   -4.1676    2.2236 H       1  LIG   0.1485   0.1500 
27    H9      -1.1568   -2.6044    2.8972 H       1  LIG   0.1387   0.1500 
28    H10     -0.7115   -0.1638    2.9053 H       1  LIG   0.1378   0.1500 
29    H11      1.4957    0.6887    2.2353 H       1  LIG   0.1540   0.1500 
30    H12      5.4372   -1.1448    0.8268 H       1  LIG   0.0529   0.1500 
@<TRIPOS>BOND
1     1     6     ar
2     1     2     ar
3     1     19    1
4     2     3     ar
5     2     20    1
6     3     4     ar
7     3     21    1
8     4     5     ar
9     4     7     1
10    5     6     ar
11    5     22    1
12    6     23    1
13    7     8     1
14    7     24    1
15    7     25    1
16    8     9     1
17    9     18    ar
18    9     10    ar
19    10    15    ar
20    10    11    ar
21    11    12    ar
22    11    26    1
23    12    13    ar
24    12    27    1
25    13    14    ar
26    13    28    1
27    14    15    ar
28    14    29    1
29    15    16    ar
30    16    17    ar
31    17    18    ar
32    17    30    1
@<TRIPOS>SUBSTRUCTURE
1   LIG    1    
 
########## Number      : 929
########## Name        : ZINC00024750
########## Description : AM1BCC_CHARGES =  -0.0000 ORIGINAL_CHARGES =  -0.0000

@<TRIPOS>MOLECULE
ZINC00024750
27    29    1     0     0    
SMALL
USER_CHARGES
****
****
@<TRIPOS>ATOM
1     C1       6.4660   -7.4092   -1.7693 C.ar    1  LIG  -0.1326  -0.1500 
2     C2       5.7566   -8.5446   -2.1282 C.ar    1  LIG  -0.1058  -0.1500 
3     C3       4.4176   -8.6699   -1.7570 C.ar    1  LIG  -0.1759  -0.1500 
4     C4       3.7604   -7.6819   -1.0294 C.ar    1  LIG   0.4236   0.3100 
5     C5       4.4691   -6.5226   -0.6579 C.ar    1  LIG  -0.2590   0.0000 
6     C6       5.8313   -6.4054   -1.0408 C.ar    1  LIG  -0.0910  -0.1500 
7     C7       3.7298   -5.5698    0.0787 C.ar    1  LIG   0.5385   0.4115 
8     N1       2.4320   -5.7513    0.4052 N.ar    1  LIG  -0.7379  -0.6200 
9     C8       1.8757   -6.8965   -0.0082 C.ar    1  LIG   0.6508   0.4700 
10    N2       2.4735   -7.8713   -0.7087 N.ar    1  LIG  -0.6902  -0.6200 
11    S1       4.4842   -4.0287    0.6272 S.3     1  LIG  -0.2226  -0.3315 
12    C9       3.1282   -3.2782    1.5897 C.3     1  LIG  -0.0563   0.4100 
13    C10      3.5607   -1.9788    2.1547 C.2     1  LIG   0.2315  -0.0400 
14    C11      3.5168   -0.6811    1.6879 C.2     1  LIG  -0.2274  -0.1500 
15    C12      4.0836    0.1266    2.7023 C.2     1  LIG  -0.2691  -0.1500 
16    C13      4.4322   -0.7277    3.7216 C.2     1  LIG   0.2522  -0.0100 
17    O1       4.1168   -2.0091    3.4006 O.3     1  LIG  -0.3552  -0.2800 
18    H1       7.5086   -7.3019   -2.0532 H       1  LIG   0.1392   0.1500 
19    H2       6.2396   -9.3344   -2.6960 H       1  LIG   0.1382   0.1500 
20    H3       3.8788   -9.5698   -2.0490 H       1  LIG   0.1545   0.1500 
21    H4       6.4167   -5.5285   -0.7755 H       1  LIG   0.1480   0.1500 
22    H5       0.8351   -7.0526    0.2492 H       1  LIG   0.0536   0.1500 
23    H6       2.2616   -3.1232    0.9382 H       1  LIG   0.0993   0.0000 
24    H7       2.8339   -3.9563    2.3980 H       1  LIG   0.1065   0.0000 
25    H8       3.1257   -0.3593    0.7331 H       1  LIG   0.1669   0.1500 
26    H9       4.2201    1.1983    2.6922 H       1  LIG   0.1643   0.1500 
27    H10      4.8891   -0.5882    4.6905 H       1  LIG   0.0559   0.1500 
@<TRIPOS>BOND
1     1     6     ar
2     1     2     ar
3     1     18    1
4     2     3     ar
5     2     19    1
6     3     4     ar
7     3     20    1
8     4     10    ar
9     4     5     ar
10    5     6     ar
11    5     7     ar
12    6     21    1
13    7     8     ar
14    7     11    1
15    8     9     ar
16    9     10    ar
17    9     22    1
18    11    12    1
19    12    13    1
20    12    23    1
21    12    24    1
22    13    17    1
23    13    14    2
24    14    15    1
25    14    25    1
26    15    16    2
27    15    26    1
28    16    17    1
29    16    27    1
@<TRIPOS>SUBSTRUCTURE
1   LIG    1    
 
########## Number      : 930
########## Name        : ZINC00024932
########## Description : AM1BCC_CHARGES =   0.9999 ORIGINAL_CHARGES =   1.0000

@<TRIPOS>MOLECULE
ZINC00024932
45    47    1     0     0    
SMALL
USER_CHARGES
****
****
@<TRIPOS>ATOM
1     C1       4.3289  -11.1011   -3.9018 C.3     1  LIG   0.0844   0.5030 
2     C2       5.1264  -11.6799   -1.6254 C.3     1  LIG   0.0815   0.5030 
3     C3       3.7889   -9.5725   -2.0076 C.3     1  LIG   0.0625   0.5030 
4     C4       3.1259   -9.5087   -0.6349 C.3     1  LIG   0.0995   0.3001 
5     N1       2.7547   -8.1481   -0.2884 N.am    1  LIG  -0.5869  -0.7301 
6     C5       3.6821   -7.2270    0.1706 C.2     1  LIG   0.7045   0.5438 
7     O1       4.8803   -7.4445    0.3160 O.2     1  LIG  -0.5888  -0.5700 
8     C6       3.1243   -5.8909    0.4926 C.ar    1  LIG  -0.1992   0.0862 
9     C7       2.3181   -5.2554   -0.4634 C.ar    1  LIG  -0.0756  -0.1500 
10    C8       1.8017   -3.9938   -0.2003 C.ar    1  LIG  -0.1414  -0.1500 
11    C9       2.0935   -3.3711    1.0089 C.ar    1  LIG  -0.0665  -0.1500 
12    C10      2.9042   -4.0079    1.9642 C.ar    1  LIG  -0.1517   0.0000 
13    C11      3.4374   -5.2877    1.7194 C.ar    1  LIG   0.4344   0.3100 
14    N2       4.2055   -5.9053    2.6452 N.ar    1  LIG  -0.6695  -0.6200 
15    C12      4.4884   -5.2972    3.8271 C.ar    1  LIG   0.5003   0.3100 
16    C13      4.0007   -4.0313    4.1216 C.ar    1  LIG  -0.2300  -0.1500 
17    C14      3.2027   -3.3889    3.1820 C.ar    1  LIG  -0.0694  -0.1500 
18    C15      5.3408   -6.0720    4.7505 C.ar    1  LIG  -0.1262   0.0000 
19    C16      5.2455   -5.9389    6.1433 C.ar    1  LIG  -0.2293  -0.1500 
20    C17      6.0745   -6.7007    6.9572 C.ar    1  LIG   0.3953   0.1600 
21    N3       6.9864   -7.5811    6.4974 N.ar    1  LIG  -0.6456  -0.6200 
22    C18      7.0672   -7.7048    5.1574 C.ar    1  LIG   0.3880   0.1600 
23    C19      6.2832   -6.9905    4.2614 C.ar    1  LIG  -0.2103  -0.1500 
24    H1       1.7737   -7.8919   -0.3493 H       1  LIG   0.3369   0.3700 
25    H2       3.4752  -10.6823   -4.4411 H       1  LIG   0.1036   0.0000 
26    H3       5.2431  -10.5409   -4.1154 H       1  LIG   0.1106   0.0000 
27    H4       4.4452  -12.1573   -4.1592 H       1  LIG   0.1036   0.0000 
28    H5       4.8100  -11.7280   -0.5817 H       1  LIG   0.1073   0.0000 
29    H6       5.2525  -12.6952   -2.0112 H       1  LIG   0.1006   0.0000 
30    H7       6.0493  -11.1042   -1.7339 H       1  LIG   0.1145   0.0000 
31    H8       4.7468   -9.0412   -2.0360 H       1  LIG   0.1419   0.0000 
32    H9       3.1241   -9.1315   -2.7595 H       1  LIG   0.1017   0.0000 
33    H10      2.2084  -10.1062   -0.6171 H       1  LIG   0.0585   0.0000 
34    H11      3.7951   -9.8815    0.1468 H       1  LIG   0.0662   0.0000 
35    H12      2.1013   -5.7262   -1.4187 H       1  LIG   0.1368   0.1500 
36    H13      1.1788   -3.4929   -0.9356 H       1  LIG   0.1521   0.1500 
37    H14      1.6843   -2.3815    1.2021 H       1  LIG   0.1518   0.1500 
38    H15      4.2319   -3.5260    5.0535 H       1  LIG   0.1615   0.1500 
39    H16      2.8177   -2.3972    3.4100 H       1  LIG   0.1538   0.1500 
40    H17      4.5305   -5.2663    6.6070 H       1  LIG   0.1490   0.1500 
41    H18      6.0176   -6.6173    8.0379 H       1  LIG   0.0329   0.1500 
42    H19      7.8046   -8.4176    4.8023 H       1  LIG   0.0272   0.1500 
43    H20      6.4187   -7.1504    3.1953 H       1  LIG   0.1582   0.1500 
44    N4       4.0424  -11.0070   -2.4253 N.4     1  LIG  -0.6735  -0.9590 
45    H21      3.1740  -11.5357   -2.2657 H       1  LIG   0.4447   0.4500 
@<TRIPOS>BOND
1     1     25    1
2     1     26    1
3     1     27    1
4     1     44    1
5     2     28    1
6     2     29    1
7     2     30    1
8     2     44    1
9     3     4     1
10    3     31    1
11    3     32    1
12    3     44    1
13    4     5     1
14    4     33    1
15    4     34    1
16    5     6     am
17    5     24    1
18    6     7     2
19    6     8     1
20    8     13    ar
21    8     9     ar
22    9     10    ar
23    9     35    1
24    10    11    ar
25    10    36    1
26    11    12    ar
27    11    37    1
28    12    17    ar
29    12    13    ar
30    13    14    ar
31    14    15    ar
32    15    16    ar
33    15    18    1
34    16    17    ar
35    16    38    1
36    17    39    1
37    18    23    ar
38    18    19    ar
39    19    20    ar
40    19    40    1
41    20    21    ar
42    20    41    1
43    21    22    ar
44    22    23    ar
45    22    42    1
46    23    43    1
47    44    45    1
@<TRIPOS>SUBSTRUCTURE
1   LIG    1    
 
########## Number      : 931
########## Name        : ZINC00024937
########## Description : AM1BCC_CHARGES =   1.0004 ORIGINAL_CHARGES =   1.0000

@<TRIPOS>MOLECULE
ZINC00024937
47    50    1     0     0    
SMALL
USER_CHARGES
****
****
@<TRIPOS>ATOM
1     C1       8.5391  -10.8404    2.8866 C.3     1  LIG  -0.0622   0.1435 
2     C2       7.3179  -10.0644    2.4803 C.ar    1  LIG  -0.0621  -0.1435 
3     C3       7.3349   -8.6632    2.5505 C.ar    1  LIG  -0.1492  -0.1500 
4     C4       6.2386   -7.8874    2.1893 C.ar    1  LIG   0.2772   0.3100 
5     C5       5.0673   -8.5315    1.7361 C.ar    1  LIG   0.3162   0.3100 
6     C6       5.0500   -9.9205    1.6665 C.ar    1  LIG  -0.1842  -0.1500 
7     C7       6.1555  -10.7040    2.0308 C.ar    1  LIG  -0.0401  -0.1435 
8     C8       6.0672  -12.2009    1.9302 C.3     1  LIG  -0.0641   0.1435 
9     N1       3.9686   -7.8552    1.3694 N.ar    1  LIG  -0.6858  -0.5670 
10    C9       4.0957   -6.5219    1.4731 C.ar    1  LIG   0.3730   0.1054 
11    C10      5.2278   -5.8665    1.9162 C.ar    1  LIG   0.3599   0.2560 
12    N2       6.3336   -6.5535    2.2857 N.ar    1  LIG  -0.5702  -0.5660 
13    C11      4.9630   -4.4724    1.8933 C.ar    1  LIG  -0.1778   0.0000 
14    C12      5.7153   -3.3283    2.2293 C.ar    1  LIG  -0.0395  -0.1500 
15    C13      5.1384   -2.0620    2.0938 C.ar    1  LIG  -0.1460  -0.1500 
16    C14      3.8327   -1.9233    1.6329 C.ar    1  LIG  -0.0803  -0.1500 
17    C15      3.0658   -3.0416    1.2926 C.ar    1  LIG  -0.1736  -0.1500 
18    C16      3.6503   -4.3114    1.4275 C.ar    1  LIG   0.0077  -0.1516 
19    N3       3.1501   -5.5763    1.1739 N.pl3   1  LIG  -0.2184   0.0476 
20    C17      1.8174   -5.8758    0.6684 C.3     1  LIG   0.0626   0.2556 
21    C18      0.8187   -6.0486    1.8071 C.3     1  LIG   0.0539   0.5030 
22    C19     -1.3909   -7.0409    2.4001 C.3     1  LIG   0.0829   0.5030 
23    C20     -1.2583   -5.4588    0.4939 C.3     1  LIG   0.0798   0.5030 
24    H1       9.3496  -10.1776    3.2079 H       1  LIG   0.0547   0.0000 
25    H2       8.3062  -11.5051    3.7245 H       1  LIG   0.0562   0.0000 
26    H3       8.9123  -11.4313    2.0441 H       1  LIG   0.0575   0.0000 
27    H4       8.2364   -8.1602    2.8997 H       1  LIG   0.1623   0.1500 
28    H5       4.1435  -10.4132    1.3157 H       1  LIG   0.1463   0.1500 
29    H6       5.0868  -12.5231    1.5635 H       1  LIG   0.0474   0.0000 
30    H7       6.8203  -12.5804    1.2324 H       1  LIG   0.0611   0.0000 
31    H8       6.2167  -12.6580    2.9135 H       1  LIG   0.0587   0.0000 
32    H9       6.7348   -3.4247    2.5924 H       1  LIG   0.1674   0.1500 
33    H10      5.7163   -1.1787    2.3525 H       1  LIG   0.1543   0.1500 
34    H11      3.4011   -0.9302    1.5354 H       1  LIG   0.1469   0.1500 
35    H12      2.0487   -2.9180    0.9355 H       1  LIG   0.1262   0.1500 
36    H13      1.5343   -5.0639   -0.0085 H       1  LIG   0.0717   0.0000 
37    H14      1.8896   -6.7872    0.0634 H       1  LIG   0.0842   0.0000 
38    H15      1.1705   -6.8183    2.5040 H       1  LIG   0.1204   0.0000 
39    H16      0.6591   -5.1195    2.3662 H       1  LIG   0.1072   0.0000 
40    H17     -2.3205   -7.4143    1.9624 H       1  LIG   0.1044   0.0000 
41    H18     -0.8553   -7.8620    2.8839 H       1  LIG   0.1100   0.0000 
42    H19     -1.5860   -6.2282    3.1049 H       1  LIG   0.1066   0.0000 
43    H20     -2.2189   -5.8763    0.1800 H       1  LIG   0.1050   0.0000 
44    H21     -1.4033   -4.5818    1.1300 H       1  LIG   0.1061   0.0000 
45    H22     -0.6661   -5.2132   -0.3898 H       1  LIG   0.1050   0.0000 
46    N4      -0.5269   -6.5109    1.2844 N.4     1  LIG  -0.6730  -0.9590 
47    H23     -0.3576   -7.3046    0.6512 H       1  LIG   0.4541   0.4500 
@<TRIPOS>BOND
1     1     2     1
2     1     24    1
3     1     25    1
4     1     26    1
5     2     7     ar
6     2     3     ar
7     3     4     ar
8     3     27    1
9     4     12    ar
10    4     5     ar
11    5     6     ar
12    5     9     ar
13    6     7     ar
14    6     28    1
15    7     8     1
16    8     29    1
17    8     30    1
18    8     31    1
19    9     10    ar
20    10    19    1
21    10    11    ar
22    11    12    ar
23    11    13    1
24    13    18    ar
25    13    14    ar
26    14    15    ar
27    14    32    1
28    15    16    ar
29    15    33    1
30    16    17    ar
31    16    34    1
32    17    18    ar
33    17    35    1
34    18    19    1
35    19    20    1
36    20    21    1
37    20    36    1
38    20    37    1
39    21    38    1
40    21    39    1
41    21    46    1
42    22    40    1
43    22    41    1
44    22    42    1
45    22    46    1
46    23    43    1
47    23    44    1
48    23    45    1
49    23    46    1
50    46    47    1
@<TRIPOS>SUBSTRUCTURE
1   LIG    1    
 
########## Number      : 932
########## Name        : ZINC00024946
########## Description : AM1BCC_CHARGES =   0.0000 ORIGINAL_CHARGES =  -0.0000

@<TRIPOS>MOLECULE
ZINC00024946
35    36    1     0     0    
SMALL
USER_CHARGES
****
****
@<TRIPOS>ATOM
1     C1       6.2524   -9.8724   -0.1289 C.3     1  LIG   0.1107   0.2800 
2     O1       5.7996   -8.6468   -0.6907 O.3     1  LIG  -0.3039  -0.3625 
3     C2       5.1591   -7.7677    0.1479 C.ar    1  LIG   0.1016   0.0825 
4     C3       4.9206   -7.9976    1.5064 C.ar    1  LIG  -0.1761  -0.1500 
5     C4       4.2600   -7.0408    2.2800 C.ar    1  LIG  -0.1241  -0.1500 
6     C5       3.8253   -5.8401    1.7111 C.ar    1  LIG  -0.0751  -0.1435 
7     C6       4.0644   -5.6099    0.3474 C.ar    1  LIG  -0.1723  -0.1500 
8     C7       4.7277   -6.5626   -0.4372 C.ar    1  LIG   0.1065   0.0825 
9     O2       5.0013   -6.4154   -1.7755 O.3     1  LIG  -0.3046  -0.3625 
10    C8       4.6017   -5.1994   -2.3951 C.3     1  LIG   0.1102   0.2800 
11    C9       3.1242   -4.7994    2.5525 C.3     1  LIG   0.0431   0.2870 
12    C10      4.0143   -3.6617    2.9770 C.ar    1  LIG  -0.4276  -0.1435 
13    C11      4.0619   -2.4969    2.2273 C.ar    1  LIG   0.4915   0.1600 
14    N1       4.8503   -1.4410    2.5063 N.ar    1  LIG  -0.7800  -0.6200 
15    C12      5.6427   -1.5557    3.5863 C.ar    1  LIG   0.8964   0.7200 
16    N2       5.6731   -2.6478    4.3788 N.ar    1  LIG  -0.8214  -0.6200 
17    C13      4.8542   -3.6868    4.0854 C.ar    1  LIG   0.7275   0.4100 
18    N3       4.9365   -4.8067    4.9052 N.pl3   1  LIG  -0.9531  -0.9000 
19    N4       6.4733   -0.4980    3.9021 N.pl3   1  LIG  -0.9257  -0.9000 
20    H1       5.5974   -4.7505    5.6705 H       1  LIG   0.4303   0.4000 
21    H2       4.1117   -5.3718    5.0541 H       1  LIG   0.4231   0.4000 
22    H3       6.4686    0.3284    3.3225 H       1  LIG   0.4251   0.4000 
23    H4       7.0780   -0.5637    4.7076 H       1  LIG   0.4235   0.4000 
24    H5       6.7361  -10.4458   -0.9256 H       1  LIG   0.0679   0.0000 
25    H6       6.9981   -9.6967    0.6534 H       1  LIG   0.0320   0.0000 
26    H7       5.4141  -10.4682    0.2468 H       1  LIG   0.0299   0.0000 
27    H8       5.2362   -8.9123    1.9984 H       1  LIG   0.1383   0.1500 
28    H9       4.0880   -7.2456    3.3337 H       1  LIG   0.1240   0.1500 
29    H10      3.7193   -4.6740   -0.0822 H       1  LIG   0.1387   0.1500 
30    H11      4.9053   -5.2450   -3.4455 H       1  LIG   0.0681   0.0000 
31    H12      3.5133   -5.0824   -2.3691 H       1  LIG   0.0300   0.0000 
32    H13      5.1056   -4.3398   -1.9410 H       1  LIG   0.0337   0.0000 
33    H14      2.2685   -4.4076    1.9850 H       1  LIG   0.0531   0.0000 
34    H15      2.6635   -5.2670    3.4318 H       1  LIG   0.0401   0.0000 
35    H16      3.4468   -2.3730    1.3406 H       1  LIG   0.0186   0.1500 
@<TRIPOS>BOND
1     1     2     1
2     1     24    1
3     1     25    1
4     1     26    1
5     2     3     1
6     3     8     ar
7     3     4     ar
8     4     5     ar
9     4     27    1
10    5     6     ar
11    5     28    1
12    6     7     ar
13    6     11    1
14    7     8     ar
15    7     29    1
16    8     9     1
17    9     10    1
18    10    30    1
19    10    31    1
20    10    32    1
21    11    12    1
22    11    33    1
23    11    34    1
24    12    17    ar
25    12    13    ar
26    13    14    ar
27    13    35    1
28    14    15    ar
29    15    16    ar
30    15    19    1
31    16    17    ar
32    17    18    1
33    18    20    1
34    18    21    1
35    19    22    1
36    19    23    1
@<TRIPOS>SUBSTRUCTURE
1   LIG    1    
 
########## Number      : 933
########## Name        : ZINC00025103
########## Description : AM1BCC_CHARGES =   1.9998 ORIGINAL_CHARGES =   2.0000

@<TRIPOS>MOLECULE
ZINC00025103
24    24    1     0     0    
SMALL
USER_CHARGES
****
****
@<TRIPOS>ATOM
1     C1       6.0285   -8.7387   -1.4470 C.3     1  LIG  -0.1015   0.0000 
2     C2       6.2778   -9.8837   -0.4872 C.3     1  LIG  -0.1054   0.0000 
3     C3       5.0025   -9.9140    0.3253 C.3     1  LIG   0.1205   0.5030 
4     C4       5.3222   -7.6848   -0.6099 C.3     1  LIG   0.1101   0.5030 
5     C5       3.2522   -8.1647    0.8224 C.3     1  LIG   0.0819   0.5030 
6     C6       3.0714   -6.7457    1.3451 C.3     1  LIG   0.0763   0.5030 
7     H1       1.4895   -5.5540    2.0049 H       1  LIG   0.4996   0.4500 
8     H2       1.0434   -6.6113    0.8130 H       1  LIG   0.4797   0.4500 
9     H3       5.3717   -9.0672   -2.2617 H       1  LIG   0.1098   0.0000 
10    H4       6.9505   -8.3589   -1.8966 H       1  LIG   0.1186   0.0000 
11    H5       6.4656  -10.8295   -1.0029 H       1  LIG   0.1256   0.0000 
12    H6       7.1387   -9.6644    0.1553 H       1  LIG   0.1080   0.0000 
13    H7       4.1680  -10.3411   -0.2414 H       1  LIG   0.1095   0.0000 
14    H8       5.1074  -10.4044    1.2967 H       1  LIG   0.1234   0.0000 
15    H9       6.0188   -6.9593   -0.1787 H       1  LIG   0.1140   0.0000 
16    H10      4.5364   -7.1717   -1.1720 H       1  LIG   0.0977   0.0000 
17    H11      2.7031   -8.3363   -0.1101 H       1  LIG   0.1291   0.0000 
18    H12      2.9227   -8.8936    1.5715 H       1  LIG   0.1236   0.0000 
19    H13      3.6210   -6.5809    2.2768 H       1  LIG   0.1362   0.0000 
20    H14      3.3638   -5.9893    0.6114 H       1  LIG   0.1376   0.0000 
21    N1       4.7084   -8.4448    0.5566 N.4     1  LIG  -0.6980  -0.9590 
22    H15      5.2405   -8.1811    1.3983 H       1  LIG   0.4579   0.4500 
23    N2       1.6368   -6.5084    1.6479 N.4     1  LIG  -0.8345  -0.8530 
24    H16      1.2806   -7.1551    2.3653 H       1  LIG   0.4801   0.4500 
@<TRIPOS>BOND
1     1     4     1
2     1     2     1
3     1     9     1
4     1     10    1
5     2     3     1
6     2     11    1
7     2     12    1
8     3     13    1
9     3     14    1
10    3     21    1
11    4     15    1
12    4     16    1
13    4     21    1
14    5     6     1
15    5     17    1
16    5     18    1
17    5     21    1
18    6     19    1
19    6     20    1
20    6     23    1
21    7     23    1
22    8     23    1
23    21    22    1
24    23    24    1
@<TRIPOS>SUBSTRUCTURE
1   LIG    1    
 
########## Number      : 934
########## Name        : ZINC00025156
########## Description : AM1BCC_CHARGES =  -0.9999 ORIGINAL_CHARGES =  -1.0000

@<TRIPOS>MOLECULE
ZINC00025156
38    39    1     0     0    
SMALL
USER_CHARGES
****
****
@<TRIPOS>ATOM
1     C1       5.2520   -9.4178   -2.6355 C.ar    1  LIG  -0.1519  -0.1500 
2     C2       4.2456  -10.0029   -1.8691 C.ar    1  LIG  -0.1373  -0.1500 
3     C3       4.1090   -9.6686   -0.5209 C.ar    1  LIG  -0.1074  -0.1500 
4     C4       4.9802   -8.7459    0.0732 C.ar    1  LIG  -0.0378  -0.1435 
5     C5       5.9866   -8.1604   -0.7073 C.ar    1  LIG  -0.1285  -0.1500 
6     C6       6.1219   -8.4964   -2.0551 C.ar    1  LIG  -0.1429  -0.1500 
7     C7       4.8289   -8.3723    1.5285 C.3     1  LIG  -0.0490   0.1435 
8     C8       4.1102   -7.0246    1.7404 C.3     1  LIG  -0.0289   0.1941 
9     C9       2.6255   -7.1718    1.3536 C.2     1  LIG   0.9132   0.9060 
10    O1       1.9448   -7.9499    2.0819 O.co2   1  LIG  -0.8478  -0.9000 
11    N1       4.2171   -6.6335    3.1447 N.am    1  LIG  -0.5165  -0.7301 
12    C10      5.3151   -5.9660    3.6531 C.2     1  LIG   0.6384   0.6156 
13    O2       6.2995   -5.6237    3.0066 O.2     1  LIG  -0.6577  -0.5700 
14    C11      5.1799   -5.7006    5.1122 C.2     1  LIG  -0.1960  -0.1356 
15    C12      6.1614   -5.0642    5.7686 C.2     1  LIG  -0.0862  -0.1784 
16    C13      6.1303   -4.7406    7.2049 C.ar    1  LIG  -0.0491   0.0284 
17    C14      5.4579   -5.5315    8.1482 C.ar    1  LIG  -0.1186  -0.1500 
18    C15      5.4820   -5.1965    9.5048 C.ar    1  LIG  -0.1341  -0.1500 
19    C16      6.1856   -4.0747    9.9367 C.ar    1  LIG  -0.1370  -0.1500 
20    C17      6.8707   -3.2892    9.0133 C.ar    1  LIG  -0.1368  -0.1500 
21    C18      6.8480   -3.6228    7.6569 C.ar    1  LIG  -0.1187  -0.1500 
22    H1       3.4507   -6.9011    3.7558 H       1  LIG   0.3261   0.3700 
23    H2       5.3565   -9.6775   -3.6848 H       1  LIG   0.1084   0.1500 
24    H3       3.5645  -10.7179   -2.3216 H       1  LIG   0.1148   0.1500 
25    H4       3.3148  -10.1286    0.0622 H       1  LIG   0.1500   0.1500 
26    H5       6.6695   -7.4374   -0.2679 H       1  LIG   0.1345   0.1500 
27    H6       6.9046   -8.0375   -2.6522 H       1  LIG   0.1107   0.1500 
28    H7       4.3114   -9.1788    2.0653 H       1  LIG   0.0571   0.0000 
29    H8       5.8326   -8.3371    1.9739 H       1  LIG   0.0352   0.0000 
30    H9       4.6025   -6.2691    1.1061 H       1  LIG   0.0685   0.0000 
31    H10      4.2712   -6.0249    5.6066 H       1  LIG   0.1274   0.1500 
32    H11      7.0489   -4.7303    5.2357 H       1  LIG   0.1530   0.1500 
33    H12      4.9140   -6.4235    7.8477 H       1  LIG   0.1388   0.1500 
34    H13      4.9544   -5.8161   10.2246 H       1  LIG   0.1263   0.1500 
35    H14      6.2041   -3.8164   10.9914 H       1  LIG   0.1223   0.1500 
36    H15      7.4252   -2.4169    9.3476 H       1  LIG   0.1236   0.1500 
37    H16      7.3934   -2.9942    6.9559 H       1  LIG   0.1347   0.1500 
38    O3       2.2647   -6.4794    0.3596 O.co2   1  LIG  -0.8007  -0.9000 
@<TRIPOS>BOND
1     1     6     ar
2     1     2     ar
3     1     23    1
4     2     3     ar
5     2     24    1
6     3     4     ar
7     3     25    1
8     4     5     ar
9     4     7     1
10    5     6     ar
11    5     26    1
12    6     27    1
13    7     8     1
14    7     28    1
15    7     29    1
16    8     9     1
17    8     11    1
18    8     30    1
19    9     10    2
20    9     38    1
21    11    12    am
22    11    22    1
23    12    13    2
24    12    14    1
25    14    15    2
26    14    31    1
27    15    16    1
28    15    32    1
29    16    21    ar
30    16    17    ar
31    17    18    ar
32    17    33    1
33    18    19    ar
34    18    34    1
35    19    20    ar
36    19    35    1
37    20    21    ar
38    20    36    1
39    21    37    1
@<TRIPOS>SUBSTRUCTURE
1   LIG    1    
 
########## Number      : 935
########## Name        : ZINC00025174
########## Description : AM1BCC_CHARGES =   0.0003 ORIGINAL_CHARGES =   0.0000

@<TRIPOS>MOLECULE
ZINC00025174
31    33    1     0     0    
SMALL
USER_CHARGES
****
****
@<TRIPOS>ATOM
1     C1       7.2551   -8.1964    2.9005 C.3     1  LIG   0.0361   0.2556 
2     N1       6.2439   -8.1966    1.8748 N.pl3   1  LIG  -0.2637   0.0476 
3     C2       5.8429   -9.2731    1.1341 C.2     1  LIG   0.3984   0.0365 
4     N2       4.8979   -8.9525    0.2752 N.2     1  LIG  -0.5421  -0.5653 
5     C3       4.6786   -7.6069    0.4703 C.ar    1  LIG  -0.2328   0.2272 
6     C4       5.5109   -7.1180    1.4661 C.ar    1  LIG   0.4537   0.1054 
7     N3       5.5756   -5.8582    1.9226 N.ar    1  LIG  -0.7356  -0.5670 
8     C5       4.6948   -5.0740    1.2727 C.ar    1  LIG   0.6858   0.4700 
9     N4       3.8281   -5.4113    0.2890 N.ar    1  LIG  -0.7974  -0.6200 
10    C6       3.7927   -6.7065   -0.1487 C.ar    1  LIG   0.7637   0.4100 
11    N5       2.9345   -7.1245   -1.1489 N.pl3   1  LIG  -0.8647  -0.8691 
12    C7       2.0249   -6.1962   -1.7832 C.3     1  LIG   0.2700   0.5126 
13    C8       1.2069   -6.9046   -2.8327 C.ar    1  LIG  -0.1181  -0.1435 
14    C9      -0.0096   -7.5136   -2.4944 C.ar    1  LIG  -0.1104  -0.1500 
15    C10     -0.7550   -8.1892   -3.4619 C.ar    1  LIG  -0.1334  -0.1500 
16    C11     -0.2890   -8.2686   -4.7730 C.ar    1  LIG  -0.1189  -0.1500 
17    C12      0.9243   -7.6755   -5.1177 C.ar    1  LIG  -0.1333  -0.1500 
18    C13      1.6715   -6.9992   -4.1520 C.ar    1  LIG  -0.1101  -0.1500 
19    H1       2.9555   -8.0980   -1.4296 H       1  LIG   0.4625   0.4000 
20    H2       7.6686   -9.2024    3.0077 H       1  LIG   0.0514   0.0000 
21    H3       8.0452   -7.5000    2.6083 H       1  LIG   0.0599   0.0000 
22    H4       6.7951   -7.8825    3.8409 H       1  LIG   0.0596   0.0000 
23    H5       6.2682  -10.2599    1.2592 H       1  LIG   0.0714   0.1500 
24    H6       4.6757   -4.0327    1.5764 H       1  LIG   0.0498   0.1500 
25    H7       1.3527   -5.7471   -1.0411 H       1  LIG   0.0600   0.0000 
26    H8       2.5789   -5.3719   -2.2502 H       1  LIG   0.0607   0.0000 
27    H9      -0.3826   -7.4658   -1.4742 H       1  LIG   0.1376   0.1500 
28    H10     -1.6981   -8.6558   -3.1918 H       1  LIG   0.1345   0.1500 
29    H11     -0.8693   -8.7955   -5.5250 H       1  LIG   0.1334   0.1500 
30    H12      1.2902   -7.7415   -6.1383 H       1  LIG   0.1346   0.1500 
31    H13      2.6193   -6.5474   -4.4341 H       1  LIG   0.1377   0.1500 
@<TRIPOS>BOND
1     1     2     1
2     1     20    1
3     1     21    1
4     1     22    1
5     2     6     1
6     2     3     1
7     3     4     2
8     3     23    1
9     4     5     1
10    5     10    ar
11    5     6     ar
12    6     7     ar
13    7     8     ar
14    8     9     ar
15    8     24    1
16    9     10    ar
17    10    11    1
18    11    12    1
19    11    19    1
20    12    13    1
21    12    25    1
22    12    26    1
23    13    18    ar
24    13    14    ar
25    14    15    ar
26    14    27    1
27    15    16    ar
28    15    28    1
29    16    17    ar
30    16    29    1
31    17    18    ar
32    17    30    1
33    18    31    1
@<TRIPOS>SUBSTRUCTURE
1   LIG    1    
 
########## Number      : 936
########## Name        : ZINC00025352
########## Description : AM1BCC_CHARGES =   0.0002 ORIGINAL_CHARGES =   0.0000

@<TRIPOS>MOLECULE
ZINC00025352
41    44    1     0     0    
SMALL
USER_CHARGES
****
****
@<TRIPOS>ATOM
1     C1       2.7121   -1.7513   -3.3420 C.3     1  LIG  -0.0664   0.1435 
2     C2       1.5012   -1.7998   -2.4385 C.ar    1  LIG   0.0153  -0.1435 
3     C3       1.6586   -1.5821   -1.0293 C.ar    1  LIG  -0.1905   0.0000 
4     C4       2.9135   -1.3818   -0.4201 C.ar    1  LIG   0.4290   0.1600 
5     N1       3.1393   -1.1489    0.8930 N.ar    1  LIG  -0.6760  -0.6200 
6     C5       2.0531   -1.1096    1.6747 C.ar    1  LIG   0.3894   0.1600 
7     C6       0.7655   -1.3040    1.2052 C.ar    1  LIG  -0.2451  -0.1500 
8     C7       0.5377   -1.5580   -0.1649 C.ar    1  LIG   0.0441   0.0000 
9     C8      -0.7699   -1.7841   -0.6796 C.ar    1  LIG  -0.1819  -0.1435 
10    C9      -0.8822   -2.0302   -2.0634 C.ar    1  LIG   0.0509  -0.1516 
11    C10      0.1985   -2.0744   -2.9444 C.ar    1  LIG  -0.0753   0.0000 
12    C11     -0.3343   -2.4268   -4.2442 C.ar    1  LIG  -0.0802   0.0000 
13    C12      0.2184   -2.6912   -5.5195 C.ar    1  LIG  -0.0789  -0.1500 
14    C13     -0.6195   -3.0038   -6.5982 C.ar    1  LIG  -0.1621  -0.1500 
15    C14     -1.9979   -3.0640   -6.4317 C.ar    1  LIG  -0.0986  -0.1500 
16    C15     -2.5742   -2.8228   -5.1847 C.ar    1  LIG  -0.1533  -0.1500 
17    C16     -1.7191   -2.5158   -4.1188 C.ar    1  LIG  -0.0059  -0.1516 
18    N2      -2.0193   -2.2562   -2.8093 N.pl3   1  LIG  -0.1837   0.0332 
19    C17     -1.9953   -1.7600    0.2084 C.3     1  LIG   0.2066   0.4235 
20    O1      -2.3140   -0.4050    0.5703 O.3     1  LIG  -0.4436  -0.4300 
21    C18     -3.2488    0.2442   -0.1812 C.2     1  LIG   0.7531   0.7800 
22    O2      -3.8425   -0.2411   -1.1372 O.2     1  LIG  -0.6258  -0.5700 
23    N3      -3.4142    1.5217    0.3007 N.am    1  LIG  -0.5522  -0.7301 
24    C19     -4.3269    2.4821   -0.2723 C.3     1  LIG   0.0896   0.3001 
25    H1      -2.9588   -2.2436   -2.4381 H       1  LIG   0.3184   0.2700 
26    H2      -2.8514    1.8025    1.0966 H       1  LIG   0.3336   0.3700 
27    H3       3.4014   -0.9537   -3.0485 H       1  LIG   0.0510   0.0000 
28    H4       3.2342   -2.7124   -3.3250 H       1  LIG   0.0566   0.0000 
29    H5       2.4376   -1.5095   -4.3693 H       1  LIG   0.0527   0.0000 
30    H6       3.8356   -1.4114   -0.9938 H       1  LIG   0.0201   0.1500 
31    H7       2.2398   -0.9151    2.7256 H       1  LIG   0.0207   0.1500 
32    H8      -0.0460   -1.2527    1.9244 H       1  LIG   0.1484   0.1500 
33    H9       1.2896   -2.6722   -5.6891 H       1  LIG   0.1354   0.1500 
34    H10     -0.1843   -3.2041   -7.5738 H       1  LIG   0.1326   0.1500 
35    H11     -2.6336   -3.3077   -7.2788 H       1  LIG   0.1329   0.1500 
36    H12     -3.6494   -2.8776   -5.0484 H       1  LIG   0.1423   0.1500 
37    H13     -2.8541   -2.2569   -0.2564 H       1  LIG   0.0730   0.0000 
38    H14     -1.8130   -2.3245    1.1295 H       1  LIG   0.0772   0.0000 
39    H15     -3.7402    3.3105   -0.6769 H       1  LIG   0.0331   0.0000 
40    H16     -4.9306    2.0343   -1.0651 H       1  LIG   0.0766   0.0000 
41    H17     -4.9759    2.8540    0.5242 H       1  LIG   0.0371   0.0000 
@<TRIPOS>BOND
1     1     2     1
2     1     27    1
3     1     28    1
4     1     29    1
5     2     11    ar
6     2     3     ar
7     3     8     ar
8     3     4     ar
9     4     5     ar
10    4     30    1
11    5     6     ar
12    6     7     ar
13    6     31    1
14    7     8     ar
15    7     32    1
16    8     9     ar
17    9     10    ar
18    9     19    1
19    10    18    1
20    10    11    ar
21    11    12    1
22    12    17    ar
23    12    13    ar
24    13    14    ar
25    13    33    1
26    14    15    ar
27    14    34    1
28    15    16    ar
29    15    35    1
30    16    17    ar
31    16    36    1
32    17    18    1
33    18    25    1
34    19    20    1
35    19    37    1
36    19    38    1
37    20    21    1
38    21    22    2
39    21    23    am
40    23    24    1
41    23    26    1
42    24    39    1
43    24    40    1
44    24    41    1
@<TRIPOS>SUBSTRUCTURE
1   LIG    1    
 
########## Number      : 937
########## Name        : ZINC00025784
########## Description : AM1BCC_CHARGES =   0.0001 ORIGINAL_CHARGES =   0.0000

@<TRIPOS>MOLECULE
ZINC00025784
30    33    1     0     0    
SMALL
USER_CHARGES
****
****
@<TRIPOS>ATOM
1     C1       5.3443   -7.9797   -1.1472 C.ar    1  LIG  -0.1589  -0.1500 
2     C2       4.0375   -8.0302   -0.6614 C.ar    1  LIG  -0.0835  -0.1500 
3     C3       3.6579   -7.2186    0.4081 C.ar    1  LIG  -0.1485  -0.1500 
4     C4       4.5875   -6.3565    0.9911 C.ar    1  LIG   0.1309   0.0825 
5     C5       5.8878   -6.3070    0.5067 C.ar    1  LIG  -0.2037   0.0862 
6     C6       6.2741   -7.1177   -0.5647 C.ar    1  LIG  -0.0508  -0.1500 
7     C7       6.8410   -5.3886    1.1417 C.2     1  LIG   0.6148   0.4694 
8     O1       7.9938   -5.3111    0.7382 O.2     1  LIG  -0.5173  -0.5700 
9     C8       6.3266   -4.5768    2.2760 C.2     1  LIG  -0.4048   0.0288 
10    C9       5.0437   -4.7120    2.6575 C.2     1  LIG   0.4230   0.2477 
11    O2       4.1567   -5.5858    2.0353 O.3     1  LIG  -0.1868  -0.1592 
12    N1       4.4884   -4.0030    3.6912 N.2     1  LIG  -0.6483  -0.6210 
13    C10      5.2164   -3.1388    4.3218 C.2     1  LIG   0.5278   0.6510 
14    N2       6.5458   -2.8786    4.0202 N.am    1  LIG  -0.3911  -0.4201 
15    C11      7.1891   -3.6177    3.0217 C.2     1  LIG   0.7302   0.6156 
16    O3       8.3867   -3.5263    2.7563 O.2     1  LIG  -0.5793  -0.5700 
17    C12      7.3967   -1.9500    4.7688 C.3     1  LIG   0.0650   0.3001 
18    C13      6.6658   -0.8190    5.4617 C.3     1  LIG  -0.0963   0.0000 
19    C14      5.6812   -1.3837    6.4569 C.3     1  LIG  -0.0763   0.2300 
20    S1       4.3800   -2.2687    5.5949 S.3     1  LIG  -0.0543  -0.3710 
21    H1       5.6382   -8.6123   -1.9801 H       1  LIG   0.1424   0.1500 
22    H2       3.3149   -8.7019   -1.1163 H       1  LIG   0.1412   0.1500 
23    H3       2.6383   -7.2627    0.7816 H       1  LIG   0.1587   0.1500 
24    H4       7.2881   -7.0896   -0.9544 H       1  LIG   0.1642   0.1500 
25    H5       7.9539   -2.5507    5.4991 H       1  LIG   0.0656   0.0000 
26    H6       8.1403   -1.5191    4.0874 H       1  LIG   0.1037   0.0000 
27    H7       7.3952   -0.1941    5.9904 H       1  LIG   0.0769   0.0000 
28    H8       6.1654   -0.1727    4.7299 H       1  LIG   0.0725   0.0000 
29    H9       6.1748   -2.0592    7.1636 H       1  LIG   0.0836   0.0000 
30    H10      5.2257   -0.5755    7.0376 H       1  LIG   0.0995   0.0000 
@<TRIPOS>BOND
1     1     6     ar
2     1     2     ar
3     1     21    1
4     2     3     ar
5     2     22    1
6     3     4     ar
7     3     23    1
8     4     11    1
9     4     5     ar
10    5     6     ar
11    5     7     1
12    6     24    1
13    7     8     2
14    7     9     1
15    9     15    1
16    9     10    2
17    10    11    1
18    10    12    1
19    12    13    2
20    13    20    1
21    13    14    1
22    14    15    am
23    14    17    1
24    15    16    2
25    17    18    1
26    17    25    1
27    17    26    1
28    18    19    1
29    18    27    1
30    18    28    1
31    19    20    1
32    19    29    1
33    19    30    1
@<TRIPOS>SUBSTRUCTURE
1   LIG    1    
 
########## Number      : 938
########## Name        : ZINC00025786
########## Description : AM1BCC_CHARGES =   0.0001 ORIGINAL_CHARGES =   0.0000

@<TRIPOS>MOLECULE
ZINC00025786
32    35    1     0     0    
SMALL
USER_CHARGES
****
****
@<TRIPOS>ATOM
1     C1       3.0270    9.5152   11.4075 C.ar    1  LIG  -0.0290  -0.1500 
2     C2       2.5792    8.4069   10.6874 C.ar    1  LIG  -0.1575  -0.1500 
3     C3       2.1447    8.5566    9.3685 C.ar    1  LIG   0.1726   0.0825 
4     C4       2.1563    9.8094    8.7669 C.ar    1  LIG  -0.2183   0.0862 
5     C5       2.6010   10.9327    9.4718 C.ar    1  LIG   0.0116  -0.1500 
6     C6       3.0337   10.7713   10.7923 C.ar    1  LIG  -0.2086   0.1330 
7     N1       3.5003   11.9323   11.5415 N.pl3   1  LIG   0.3170   0.9070 
8     O1       4.2544   11.7305   12.5030 O.2     1  LIG  -0.2095  -0.5200 
9     O2       3.1137   13.0489   11.1709 O.3     1  LIG  -0.1945  -0.5200 
10    C7       1.6945    9.9254    7.3775 C.2     1  LIG   0.6159   0.4694 
11    O3       1.6986   11.0094    6.8096 O.2     1  LIG  -0.5017  -0.5700 
12    C8       1.2368    8.6726    6.7210 C.2     1  LIG  -0.4033   0.0288 
13    C9       1.2704    7.5163    7.4074 C.2     1  LIG   0.4216   0.2477 
14    O4       1.7197    7.4289    8.7216 O.3     1  LIG  -0.1831  -0.1592 
15    N2       0.8685    6.3169    6.8792 N.2     1  LIG  -0.6479  -0.6210 
16    C10      0.4595    6.2771    5.6521 C.2     1  LIG   0.5284   0.6510 
17    N3       0.3953    7.3863    4.8207 N.am    1  LIG  -0.3868  -0.4201 
18    C11      0.7264    8.6499    5.3214 C.2     1  LIG   0.7292   0.6156 
19    O5       0.6035    9.6984    4.6901 O.2     1  LIG  -0.5726  -0.5700 
20    C12     -0.1266    7.3640    3.4517 C.3     1  LIG   0.0633   0.3001 
21    C13     -0.0060    6.0352    2.7356 C.3     1  LIG  -0.0965   0.0000 
22    C14     -0.7692    4.9769    3.4946 C.3     1  LIG  -0.0796   0.2300 
23    S1       0.0124    4.6793    5.0821 S.3     1  LIG  -0.0389  -0.3710 
24    H1       3.3550    9.3765   12.4342 H       1  LIG   0.1786   0.1500 
25    H2       2.5699    7.4278   11.1598 H       1  LIG   0.1734   0.1500 
26    H3       2.6125   11.9081    8.9921 H       1  LIG   0.1990   0.1500 
27    H4      -1.1779    7.6745    3.5093 H       1  LIG   0.0688   0.0000 
28    H5       0.3919    8.1279    2.8597 H       1  LIG   0.1059   0.0000 
29    H6      -0.4289    6.1330    1.7288 H       1  LIG   0.0803   0.0000 
30    H7       1.0473    5.7540    2.6115 H       1  LIG   0.0735   0.0000 
31    H8      -1.8112    5.2753    3.6519 H       1  LIG   0.0860   0.0000 
32    H9      -0.7772    4.0392    2.9303 H       1  LIG   0.1028   0.0000 
@<TRIPOS>BOND
1     1     6     ar
2     1     2     ar
3     1     24    1
4     2     3     ar
5     2     25    1
6     3     14    1
7     3     4     ar
8     4     5     ar
9     4     10    1
10    5     6     ar
11    5     26    1
12    6     7     1
13    7     8     2
14    7     9     1
15    10    11    2
16    10    12    1
17    12    18    1
18    12    13    2
19    13    14    1
20    13    15    1
21    15    16    2
22    16    23    1
23    16    17    1
24    17    18    am
25    17    20    1
26    18    19    2
27    20    21    1
28    20    27    1
29    20    28    1
30    21    22    1
31    21    29    1
32    21    30    1
33    22    23    1
34    22    31    1
35    22    32    1
@<TRIPOS>SUBSTRUCTURE
1   LIG    1    
 
########## Number      : 939
########## Name        : ZINC00026039
########## Description : AM1BCC_CHARGES =   1.0003 ORIGINAL_CHARGES =   0.9999

@<TRIPOS>MOLECULE
ZINC00026039
37    38    1     0     0    
SMALL
USER_CHARGES
****
****
@<TRIPOS>ATOM
1     C1       5.4116   -8.9240    0.8903 C.ar    1  LIG  -0.1050  -0.1500 
2     C2       6.0459   -8.0777   -0.0159 C.ar    1  LIG  -0.1207  -0.1500 
3     C3       6.1817   -6.7183    0.2727 C.ar    1  LIG  -0.1058  -0.1500 
4     C4       5.6851   -6.1869    1.4736 C.ar    1  LIG  -0.1201  -0.1435 
5     C5       5.0467   -7.0531    2.3762 C.ar    1  LIG  -0.1228  -0.1500 
6     C6       4.9120   -8.4122    2.0854 C.ar    1  LIG  -0.1226  -0.1500 
7     C7       5.8402   -4.7028    1.7631 C.3     1  LIG   0.2140   0.5871 
8     C8       4.5078   -3.9655    1.7732 C.ar    1  LIG  -0.1214  -0.1435 
9     C9       3.9854   -3.4738    0.5652 C.ar    1  LIG  -0.1044  -0.1500 
10    C10      2.7578   -2.8098    0.5354 C.ar    1  LIG  -0.1171  -0.1500 
11    C11      2.0317   -2.6330    1.7105 C.ar    1  LIG  -0.1098  -0.1500 
12    C12      2.5308   -3.1226    2.9151 C.ar    1  LIG  -0.1234  -0.1500 
13    C13      3.7587   -3.7873    2.9473 C.ar    1  LIG  -0.1286  -0.1500 
14    N1       6.6215   -4.4799    2.9812 N.am    1  LIG  -0.5241  -0.7301 
15    C14      7.3635   -3.3367    3.1885 C.2     1  LIG   0.7982   0.9730 
16    O1       7.4731   -2.4007    2.4063 O.2     1  LIG  -0.5973  -0.5700 
17    N2       8.0180   -3.3547    4.4648 N.am    1  LIG  -0.5119  -0.8597 
18    C15      8.8359   -2.3710    5.0009 C.cat   1  LIG   0.4946   1.2000 
19    N3       9.3878   -2.5566    6.2523 N.pl3   1  LIG  -0.5163  -0.9667 
20    N4       9.1102   -1.2100    4.3110 N.pl3   1  LIG  -0.4677  -0.9667 
21    H1       6.5854   -5.1886    3.7054 H       1  LIG   0.3297   0.3700 
22    H2       7.8661   -4.1794    5.0394 H       1  LIG   0.3488   0.4500 
23    H3       9.9905   -1.8530    6.6698 H       1  LIG   0.3275   0.4500 
24    H4       9.2092   -3.3990    6.7914 H       1  LIG   0.3245   0.4500 
25    H5       9.7085   -0.4882    4.7012 H       1  LIG   0.3230   0.4500 
26    H6       8.7149   -1.0489    3.3868 H       1  LIG   0.3658   0.4500 
27    H7       5.3056   -9.9812    0.6647 H       1  LIG   0.1481   0.1500 
28    H8       6.4348   -8.4753   -0.9491 H       1  LIG   0.1479   0.1500 
29    H9       6.6789   -6.0766   -0.4510 H       1  LIG   0.1387   0.1500 
30    H10      4.6461   -6.6793    3.3148 H       1  LIG   0.1262   0.1500 
31    H11      4.4153   -9.0711    2.7920 H       1  LIG   0.1445   0.1500 
32    H12      6.4421   -4.2558    0.9592 H       1  LIG   0.0991   0.0000 
33    H13      4.5339   -3.6056   -0.3647 H       1  LIG   0.1409   0.1500 
34    H14      2.3680   -2.4326   -0.4058 H       1  LIG   0.1469   0.1500 
35    H15      1.0760   -2.1173    1.6870 H       1  LIG   0.1472   0.1500 
36    H16      1.9624   -2.9899    3.8314 H       1  LIG   0.1409   0.1500 
37    H17      4.1191   -4.1658    3.9002 H       1  LIG   0.1128   0.1500 
@<TRIPOS>BOND
1     1     6     ar
2     1     2     ar
3     1     27    1
4     2     3     ar
5     2     28    1
6     3     4     ar
7     3     29    1
8     4     5     ar
9     4     7     1
10    5     6     ar
11    5     30    1
12    6     31    1
13    7     8     1
14    7     14    1
15    7     32    1
16    8     13    ar
17    8     9     ar
18    9     10    ar
19    9     33    1
20    10    11    ar
21    10    34    1
22    11    12    ar
23    11    35    1
24    12    13    ar
25    12    36    1
26    13    37    1
27    14    15    am
28    14    21    1
29    15    16    2
30    15    17    am
31    17    18    1
32    17    22    1
33    18    19    1
34    18    20    2
35    19    23    1
36    19    24    1
37    20    25    1
38    20    26    1
@<TRIPOS>SUBSTRUCTURE
1   LIG    1    
 
########## Number      : 940
########## Name        : ZINC00026181
########## Description : AM1BCC_CHARGES =   0.0002 ORIGINAL_CHARGES =   0.0000

@<TRIPOS>MOLECULE
ZINC00026181
32    33    1     0     0    
SMALL
USER_CHARGES
****
****
@<TRIPOS>ATOM
1     C1       5.7034   -9.3962    1.6570 C.ar    1  LIG  -0.1421  -0.1500 
2     C2       6.9112  -10.0667    1.4887 C.ar    1  LIG  -0.0899  -0.1500 
3     C3       8.1157   -9.4252    1.7847 C.ar    1  LIG  -0.1301  -0.1500 
4     C4       8.1292   -8.1042    2.2574 C.ar    1  LIG   0.0720   0.1015 
5     C5       6.9046   -7.4308    2.4150 C.ar    1  LIG  -0.1617   0.0862 
6     C6       5.6965   -8.0816    2.1197 C.ar    1  LIG  -0.0896  -0.1500 
7     C7       6.8331   -6.0390    2.9198 C.2     1  LIG   0.6464   0.5438 
8     O1       7.4138   -5.7311    3.9555 O.2     1  LIG  -0.5771  -0.5700 
9     N1       6.0849   -5.1847    2.1350 N.am    1  LIG  -0.4022  -0.4300 
10    N2       5.9549   -3.8680    2.5226 N.am    1  LIG  -0.4035  -0.4300 
11    C8       5.1969   -3.0165    1.7441 C.2     1  LIG   0.6470   0.5438 
12    O2       4.6075   -3.3268    0.7140 O.2     1  LIG  -0.5782  -0.5700 
13    C9       5.1260   -1.6246    2.2484 C.ar    1  LIG  -0.1616   0.0862 
14    C10      6.3350   -0.9696    2.5310 C.ar    1  LIG  -0.0896  -0.1500 
15    C11      6.3286    0.3454    2.9925 C.ar    1  LIG  -0.1421  -0.1500 
16    C12      5.1204    1.0122    3.1724 C.ar    1  LIG  -0.0898  -0.1500 
17    C13      3.9151    0.3666    2.8891 C.ar    1  LIG  -0.1302  -0.1500 
18    C14      3.9009   -0.9549    2.4178 C.ar    1  LIG   0.0720   0.1015 
19    S1       2.3006   -1.7021    2.1339 S.3     1  LIG  -0.2429  -0.2815 
20    S2       9.7290   -7.3623    2.5581 S.3     1  LIG  -0.2431  -0.2815 
21    H1       5.6320   -5.4575    1.2673 H       1  LIG   0.3219   0.3700 
22    H2       6.4149   -3.5931    3.3859 H       1  LIG   0.3223   0.3700 
23    H3       2.6775   -2.5070    1.1283 H       1  LIG   0.2228   0.1800 
24    H4       9.3447   -6.5576    3.5609 H       1  LIG   0.2227   0.1800 
25    H5       4.7668   -9.8980    1.4307 H       1  LIG   0.1420   0.1500 
26    H6       6.9178  -11.0909    1.1262 H       1  LIG   0.1410   0.1500 
27    H7       9.0443   -9.9735    1.6384 H       1  LIG   0.1519   0.1500 
28    H8       4.7414   -7.5804    2.2581 H       1  LIG   0.1385   0.1500 
29    H9       7.2902   -1.4680    2.3833 H       1  LIG   0.1385   0.1500 
30    H10      7.2658    0.8503    3.2090 H       1  LIG   0.1420   0.1500 
31    H11      5.1142    2.0367    3.5340 H       1  LIG   0.1410   0.1500 
32    H12      2.9862    0.9121    3.0444 H       1  LIG   0.1519   0.1500 
@<TRIPOS>BOND
1     1     6     ar
2     1     2     ar
3     1     25    1
4     2     3     ar
5     2     26    1
6     3     4     ar
7     3     27    1
8     4     5     ar
9     4     20    1
10    5     6     ar
11    5     7     1
12    6     28    1
13    7     8     2
14    7     9     am
15    9     10    1
16    9     21    1
17    10    11    am
18    10    22    1
19    11    12    2
20    11    13    1
21    13    18    ar
22    13    14    ar
23    14    15    ar
24    14    29    1
25    15    16    ar
26    15    30    1
27    16    17    ar
28    16    31    1
29    17    18    ar
30    17    32    1
31    18    19    1
32    19    23    1
33    20    24    1
@<TRIPOS>SUBSTRUCTURE
1   LIG    1    
 
########## Number      : 941
########## Name        : ZINC00026213
########## Description : AM1BCC_CHARGES =   1.9997 ORIGINAL_CHARGES =   2.0000

@<TRIPOS>MOLECULE
ZINC00026213
41    43    1     0     0    
SMALL
USER_CHARGES
****
****
@<TRIPOS>ATOM
1     C1       2.3087   -9.5183   -0.4249 C.ar    1  LIG  -0.1070  -0.1500 
2     C2       1.9422  -10.8661   -0.3318 C.ar    1  LIG  -0.0733  -0.1500 
3     C3       2.1904  -11.6000    0.8345 C.ar    1  LIG  -0.1720  -0.0220 
4     C4       2.8148  -10.9493    1.9055 C.ar    1  LIG  -0.0770  -0.1500 
5     C5       3.1803   -9.6012    1.8131 C.ar    1  LIG  -0.1060  -0.1500 
6     C6       2.9331   -8.8647    0.6461 C.ar    1  LIG   0.0538   0.0530 
7     C7       3.3102   -7.4579    0.5371 C.2     1  LIG   0.1798   0.0870 
8     C8       3.1997   -6.5014   -0.4526 C.2     1  LIG  -0.1960  -0.1500 
9     C9       3.7635   -5.3098    0.0661 C.2     1  LIG  -0.1955  -0.1500 
10    C10      4.1909   -5.5964    1.3474 C.2     1  LIG   0.1794   0.0870 
11    O1       3.9138   -6.9043    1.6311 O.3     1  LIG  -0.3588  -0.2800 
12    C11      4.8434   -4.8271    2.4036 C.ar    1  LIG   0.0541   0.0530 
13    C12      5.1665   -3.4781    2.2044 C.ar    1  LIG  -0.1071  -0.1500 
14    C13      5.7913   -2.7305    3.2096 C.ar    1  LIG  -0.0728  -0.1500 
15    C14      6.1124   -3.3105    4.4429 C.ar    1  LIG  -0.1717  -0.0220 
16    C15      5.7912   -4.6584    4.6439 C.ar    1  LIG  -0.0774  -0.1500 
17    C16      5.1653   -5.4057    3.6393 C.ar    1  LIG  -0.1061  -0.1500 
18    C17      6.7701   -2.5241    5.4997 C.cat   1  LIG   0.5061   0.7308 
19    N1       6.3698   -1.2801    5.7301 N.pl3   1  LIG  -0.8011  -0.7544 
20    N2       7.7504   -3.0736    6.2054 N.pl3   1  LIG  -0.8034  -0.7544 
21    C18      1.8053  -13.0178    0.9319 C.cat   1  LIG   0.5060   0.7308 
22    N3       2.6384  -13.8811    1.4990 N.pl3   1  LIG  -0.8031  -0.7544 
23    N4       0.6328  -13.4085    0.4487 N.pl3   1  LIG  -0.8010  -0.7544 
24    H1       6.8080   -0.7189    6.4512 H       1  LIG   0.4788   0.4500 
25    H2       5.6098   -0.8650    5.2026 H       1  LIG   0.4915   0.4500 
26    H3       8.2150   -2.5538    6.9410 H       1  LIG   0.4783   0.4500 
27    H4       8.0705   -4.0170    6.0165 H       1  LIG   0.4900   0.4500 
28    H5       2.3949  -14.8617    1.5785 H       1  LIG   0.4784   0.4500 
29    H6       3.5415  -13.5865    1.8535 H       1  LIG   0.4901   0.4500 
30    H7       0.3479  -14.3798    0.4997 H       1  LIG   0.4787   0.4500 
31    H8      -0.0128  -12.7462    0.0333 H       1  LIG   0.4917   0.4500 
32    H9       2.0969   -8.9931   -1.3537 H       1  LIG   0.1700   0.1500 
33    H10      1.4701  -11.3372   -1.1911 H       1  LIG   0.1577   0.1500 
34    H11      3.0148  -11.4798    2.8337 H       1  LIG   0.1541   0.1500 
35    H12      3.6598   -9.1402    2.6740 H       1  LIG   0.1700   0.1500 
36    H13      2.7666   -6.6362   -1.4337 H       1  LIG   0.1845   0.1500 
37    H14      3.8437   -4.3595   -0.4427 H       1  LIG   0.1846   0.1500 
38    H15      4.9408   -2.9822    1.2629 H       1  LIG   0.1700   0.1500 
39    H16      6.0346   -1.6896    3.0084 H       1  LIG   0.1577   0.1500 
40    H17      6.0126   -5.1439    5.5918 H       1  LIG   0.1537   0.1500 
41    H18      4.9334   -6.4485    3.8457 H       1  LIG   0.1700   0.1500 
@<TRIPOS>BOND
1     1     6     ar
2     1     2     ar
3     1     32    1
4     2     3     ar
5     2     33    1
6     3     4     ar
7     3     21    1
8     4     5     ar
9     4     34    1
10    5     6     ar
11    5     35    1
12    6     7     1
13    7     11    1
14    7     8     2
15    8     9     1
16    8     36    1
17    9     10    2
18    9     37    1
19    10    11    1
20    10    12    1
21    12    17    ar
22    12    13    ar
23    13    14    ar
24    13    38    1
25    14    15    ar
26    14    39    1
27    15    16    ar
28    15    18    1
29    16    17    ar
30    16    40    1
31    17    41    1
32    18    19    2
33    18    20    1
34    19    24    1
35    19    25    1
36    20    26    1
37    20    27    1
38    21    22    2
39    21    23    1
40    22    28    1
41    22    29    1
42    23    30    1
43    23    31    1
@<TRIPOS>SUBSTRUCTURE
1   LIG    1    
 
########## Number      : 942
########## Name        : ZINC00026612
########## Description : AM1BCC_CHARGES =  -1.0001 ORIGINAL_CHARGES =  -1.0000

@<TRIPOS>MOLECULE
ZINC00026612
30    31    1     0     0    
SMALL
USER_CHARGES
****
****
@<TRIPOS>ATOM
1     C1       5.6299   -9.3684    1.2289 C.ar    1  LIG  -0.1458  -0.1500 
2     C2       6.4745  -10.0536    2.1027 C.ar    1  LIG  -0.1175  -0.1500 
3     C3       6.9275   -9.4450    3.2800 C.ar    1  LIG  -0.1062  -0.1790 
4     C4       6.5080   -8.1308    3.5528 C.ar    1  LIG  -0.1504  -0.1500 
5     C5       5.6572   -7.4317    2.6790 C.ar    1  LIG   0.0236   0.1170 
6     C6       5.2219   -8.0637    1.5136 C.ar    1  LIG  -0.1688  -0.1500 
7     N1       5.3004   -6.1152    3.0554 N.am    1  LIG  -0.4597  -0.5470 
8     C7       4.4747   -5.2161    2.3674 C.2     1  LIG   0.7926   0.6900 
9     O1       3.9179   -5.4431    1.2986 O.2     1  LIG  -0.6300  -0.5700 
10    N2       4.3832   -4.0184    3.0883 N.am    1  LIG  -0.4912  -0.5470 
11    C8       3.6575   -2.8435    2.7629 C.ar    1  LIG   0.1345   0.1170 
12    C9       2.8863   -2.7185    1.6016 C.ar    1  LIG  -0.1629  -0.1500 
13    C10      2.1913   -1.5371    1.3308 C.ar    1  LIG  -0.0930  -0.1500 
14    C11      2.2555   -0.4640    2.2141 C.ar    1  LIG  -0.1691  -0.1500 
15    C12      3.0181   -0.5670    3.3774 C.ar    1  LIG   0.0536   0.1770 
16    C13      3.7193   -1.7511    3.6563 C.ar    1  LIG  -0.0633   0.1770 
17    Cl1      4.6718   -1.8835    5.1065 Cl      1  LIG  -0.0882  -0.1770 
18    Cl2      3.0546    0.8040    4.4318 Cl      1  LIG  -0.0907  -0.1770 
19    C14      7.8415  -10.1798    4.2304 C.2     1  LIG   0.9090   0.9790 
20    O2       8.1777  -11.3644    3.9164 O.co2   1  LIG  -0.8226  -0.9000 
21    H1       5.6959   -5.7914    3.9325 H       1  LIG   0.3177   0.3700 
22    H2       4.8998   -3.9708    3.9616 H       1  LIG   0.3225   0.3700 
23    H3       5.2870   -9.8544    0.3194 H       1  LIG   0.1106   0.1500 
24    H4       6.7729  -11.0684    1.8505 H       1  LIG   0.1541   0.1500 
25    H5       6.8507   -7.6423    4.4638 H       1  LIG   0.1538   0.1500 
26    H6       4.5659   -7.5799    0.7997 H       1  LIG   0.1478   0.1500 
27    H7       2.7967   -3.5183    0.8756 H       1  LIG   0.1911   0.1500 
28    H8       1.5971   -1.4570    0.4243 H       1  LIG   0.1369   0.1500 
29    H9       1.7069    0.4458    1.9838 H       1  LIG   0.1438   0.1500 
30    O3       8.2105   -9.5620    5.2780 O.co2   1  LIG  -0.8323  -0.9000 
@<TRIPOS>BOND
1     1     6     ar
2     1     2     ar
3     1     23    1
4     2     3     ar
5     2     24    1
6     3     4     ar
7     3     19    1
8     4     5     ar
9     4     25    1
10    5     6     ar
11    5     7     1
12    6     26    1
13    7     8     am
14    7     21    1
15    8     9     2
16    8     10    am
17    10    11    1
18    10    22    1
19    11    16    ar
20    11    12    ar
21    12    13    ar
22    12    27    1
23    13    14    ar
24    13    28    1
25    14    15    ar
26    14    29    1
27    15    16    ar
28    15    18    1
29    16    17    1
30    19    20    2
31    19    30    1
@<TRIPOS>SUBSTRUCTURE
1   LIG    1    
 
########## Number      : 943
########## Name        : ZINC00026615
########## Description : AM1BCC_CHARGES =   0.0003 ORIGINAL_CHARGES =   0.0000

@<TRIPOS>MOLECULE
ZINC00026615
31    32    1     0     0    
SMALL
USER_CHARGES
****
****
@<TRIPOS>ATOM
1     C1       5.3543   -8.7409   -1.8628 C.ar    1  LIG  -0.1080  -0.1500 
2     C2       5.1366   -7.6758   -0.9910 C.ar    1  LIG  -0.1512  -0.1500 
3     C3       5.7186   -7.6537    0.2881 C.ar    1  LIG   0.0761   0.1170 
4     C4       6.6043   -8.6880    0.6523 C.ar    1  LIG   0.0231   0.1770 
5     C5       6.8096   -9.7644   -0.2331 C.ar    1  LIG   0.0289   0.1770 
6     C6       6.1762   -9.7933   -1.4783 C.ar    1  LIG  -0.1235  -0.1500 
7     Cl1      7.8625  -11.0892    0.1412 Cl      1  LIG  -0.0621  -0.1770 
8     Cl2      7.5952   -8.5784    2.0762 Cl      1  LIG  -0.0438  -0.1770 
9     N1       5.3702   -6.5375    1.0885 N.am    1  LIG  -0.4913  -0.5470 
10    C7       5.1795   -6.5331    2.4757 C.2     1  LIG   0.7912   0.6900 
11    O1       5.0981   -7.5427    3.1686 O.2     1  LIG  -0.5879  -0.5700 
12    N2       5.0540   -5.2180    2.9303 N.am    1  LIG  -0.4738  -0.5470 
13    C8       4.8174   -4.7648    4.2496 C.ar    1  LIG   0.0594   0.1170 
14    C9       4.6450   -5.6095    5.3503 C.ar    1  LIG  -0.0687  -0.1500 
15    C10      4.4138   -5.0527    6.6168 C.ar    1  LIG  -0.1822   0.1330 
16    C11      4.3497   -3.6702    6.8093 C.ar    1  LIG  -0.0571  -0.1500 
17    C12      4.5209   -2.8276    5.7145 C.ar    1  LIG  -0.1997  -0.1500 
18    C13      4.7520   -3.3749    4.4499 C.ar    1  LIG   0.1098   0.0825 
19    O2       4.9202   -2.5440    3.3708 O.3     1  LIG  -0.5076  -0.5325 
20    N3       4.2348   -5.9361    7.7624 N.pl3   1  LIG   0.3162   0.9070 
21    O3       3.5462   -5.5204    8.7043 O.2     1  LIG  -0.2158  -0.5200 
22    O4       4.7832   -7.0457    7.7237 O.3     1  LIG  -0.1949  -0.5200 
23    H1       4.9914   -5.7350    0.5941 H       1  LIG   0.3178   0.3700 
24    H2       5.1664   -4.4805    2.2400 H       1  LIG   0.3326   0.3700 
25    H3       4.8498   -1.6219    3.6723 H       1  LIG   0.4359   0.4500 
26    H4       4.8760   -8.7516   -2.8381 H       1  LIG   0.1443   0.1500 
27    H5       4.4736   -6.8740   -1.3107 H       1  LIG   0.1409   0.1500 
28    H6       6.3340  -10.6206   -2.1658 H       1  LIG   0.1547   0.1500 
29    H7       4.6783   -6.6874    5.2424 H       1  LIG   0.2123   0.1500 
30    H8       4.1766   -3.2341    7.7893 H       1  LIG   0.1751   0.1500 
31    H9       4.4738   -1.7516    5.8569 H       1  LIG   0.1496   0.1500 
@<TRIPOS>BOND
1     1     6     ar
2     1     2     ar
3     1     26    1
4     2     3     ar
5     2     27    1
6     3     4     ar
7     3     9     1
8     4     5     ar
9     4     8     1
10    5     6     ar
11    5     7     1
12    6     28    1
13    9     10    am
14    9     23    1
15    10    11    2
16    10    12    am
17    12    13    1
18    12    24    1
19    13    18    ar
20    13    14    ar
21    14    15    ar
22    14    29    1
23    15    16    ar
24    15    20    1
25    16    17    ar
26    16    30    1
27    17    18    ar
28    17    31    1
29    18    19    1
30    19    25    1
31    20    21    2
32    20    22    1
@<TRIPOS>SUBSTRUCTURE
1   LIG    1    
 
########## Number      : 944
########## Name        : ZINC00026774
########## Description : AM1BCC_CHARGES =  -0.0003 ORIGINAL_CHARGES =   0.0000

@<TRIPOS>MOLECULE
ZINC00026774
25    28    1     0     0    
SMALL
USER_CHARGES
****
****
@<TRIPOS>ATOM
1     C1       5.3365   -7.9633    1.8241 C.ar    1  LIG  -0.2501  -0.1500 
2     C2       5.6194   -6.6735    2.2398 C.ar    1  LIG  -0.0452  -0.1500 
3     C3       4.7521   -5.6350    1.8864 C.ar    1  LIG  -0.2713   0.0862 
4     C4       3.6042   -5.8943    1.1172 C.ar    1  LIG   0.3921   0.3100 
5     N1       3.3446   -7.1579    0.7209 N.ar    1  LIG  -0.6311  -0.6200 
6     C5       4.1955   -8.1516    1.0723 C.ar    1  LIG   0.4205   0.1600 
7     C6       2.7357   -4.8658    0.7611 C.ar    1  LIG   0.3864   0.3100 
8     C7       3.0023   -3.5448    1.1724 C.ar    1  LIG  -0.2424   0.0000 
9     C8       2.1273   -2.5003    0.8152 C.ar    1  LIG  -0.0022   0.0000 
10    C9       1.0019   -2.8012    0.0524 C.ar    1  LIG  -0.2227  -0.1500 
11    C10      0.8070   -4.1179   -0.3130 C.ar    1  LIG   0.3972   0.1600 
12    N2       1.6384   -5.1312    0.0225 N.ar    1  LIG  -0.6114  -0.6200 
13    C11      2.4109   -1.1938    1.2345 C.ar    1  LIG  -0.2087  -0.1500 
14    C12      3.5517   -0.9739    1.9919 C.ar    1  LIG   0.3890   0.1600 
15    N3       4.4156   -1.9438    2.3559 N.ar    1  LIG  -0.6045  -0.6200 
16    C13      4.1157   -3.1940    1.9368 C.ar    1  LIG   0.3820   0.3962 
17    C14      5.0565   -4.2555    2.3322 C.2     1  LIG   0.4835   0.3976 
18    O1       6.0479   -4.0014    3.0021 O.2     1  LIG  -0.4858  -0.5700 
19    H1       5.9859   -8.7923    2.0792 H       1  LIG   0.1534   0.1500 
20    H2       6.5100   -6.4882    2.8338 H       1  LIG   0.1671   0.1500 
21    H3       3.9191   -9.1390    0.7164 H       1  LIG   0.0317   0.1500 
22    H4       0.2934   -2.0378   -0.2520 H       1  LIG   0.1521   0.1500 
23    H5      -0.0534   -4.4089   -0.9074 H       1  LIG   0.0332   0.1500 
24    H6       1.7612   -0.3621    0.9796 H       1  LIG   0.1526   0.1500 
25    H7       3.8057    0.0238    2.3357 H       1  LIG   0.0343   0.1500 
@<TRIPOS>BOND
1     1     6     ar
2     1     2     ar
3     1     19    1
4     2     3     ar
5     2     20    1
6     3     17    1
7     3     4     ar
8     4     5     ar
9     4     7     1
10    5     6     ar
11    6     21    1
12    7     12    ar
13    7     8     ar
14    8     16    ar
15    8     9     ar
16    9     10    ar
17    9     13    ar
18    10    11    ar
19    10    22    1
20    11    12    ar
21    11    23    1
22    13    14    ar
23    13    24    1
24    14    15    ar
25    14    25    1
26    15    16    ar
27    16    17    1
28    17    18    2
@<TRIPOS>SUBSTRUCTURE
1   LIG    1    
 
########## Number      : 945
########## Name        : ZINC00026956
########## Description : AM1BCC_CHARGES =  -0.0002 ORIGINAL_CHARGES =  -0.0000

@<TRIPOS>MOLECULE
ZINC00026956
34    36    1     0     0    
SMALL
USER_CHARGES
****
****
@<TRIPOS>ATOM
1     C1       6.9232  -10.2445    1.0898 C.ar    1  LIG  -0.1192  -0.1500 
2     C2       5.6343   -9.9580    1.5363 C.ar    1  LIG  -0.1350  -0.1500 
3     C3       5.1109   -8.6729    1.3842 C.ar    1  LIG  -0.1049  -0.1500 
4     C4       5.8710   -7.6646    0.7762 C.ar    1  LIG  -0.0954  -0.1435 
5     C5       7.1700   -7.9601    0.3410 C.ar    1  LIG  -0.1039  -0.1500 
6     C6       7.6914   -9.2458    0.4942 C.ar    1  LIG  -0.1344  -0.1500 
7     C7       5.3166   -6.2716    0.6333 C.3     1  LIG   0.1768   0.4235 
8     O1       5.6676   -5.5387    1.8052 O.3     1  LIG  -0.3248  -0.3625 
9     C8       5.2555   -4.2329    1.8741 C.ar    1  LIG   0.1052   0.0825 
10    C9       4.5187   -3.5590    0.8995 C.ar    1  LIG  -0.1807  -0.1500 
11    C10      4.1480   -2.2193    1.0702 C.ar    1  LIG  -0.1087  -0.1500 
12    C11      4.5392   -1.5769    2.2489 C.ar    1  LIG  -0.0766  -0.1516 
13    C12      5.2753   -2.2163    3.2460 C.ar    1  LIG  -0.0474   0.0000 
14    C13      5.6368   -3.5664    3.0497 C.ar    1  LIG  -0.1189  -0.1500 
15    C14      5.4957   -1.2646    4.2960 C.2     1  LIG  -0.1682  -0.1810 
16    C15      4.8850   -0.0896    3.9006 C.2     1  LIG  -0.0724  -0.3016 
17    N1       4.3171   -0.2880    2.6718 N.pl3   1  LIG  -0.1897   0.0332 
18    C16      6.2319   -1.4898    5.5738 C.3     1  LIG   0.0599   0.3810 
19    C17      7.6751   -1.3134    5.3705 C.1     1  LIG   0.2150   0.3571 
20    N2       8.8174   -1.1764    5.2177 N.1     1  LIG  -0.3803  -0.5571 
21    H1       3.8068    0.4109    2.1496 H       1  LIG   0.3013   0.2700 
22    H2       7.3301  -11.2444    1.2097 H       1  LIG   0.1319   0.1500 
23    H3       5.0373  -10.7346    2.0059 H       1  LIG   0.1327   0.1500 
24    H4       4.1069   -8.4626    1.7443 H       1  LIG   0.1348   0.1500 
25    H5       7.7840   -7.1894   -0.1186 H       1  LIG   0.1360   0.1500 
26    H6       8.6981   -9.4671    0.1513 H       1  LIG   0.1334   0.1500 
27    H7       5.7437   -5.8005   -0.2611 H       1  LIG   0.0440   0.0000 
28    H8       4.2263   -6.3237    0.5210 H       1  LIG   0.0421   0.0000 
29    H9       4.2090   -4.0472   -0.0200 H       1  LIG   0.1368   0.1500 
30    H10      3.5751   -1.7011    0.3079 H       1  LIG   0.1343   0.1500 
31    H11      6.2119   -4.0916    3.8084 H       1  LIG   0.1547   0.1500 
32    H12      4.8074    0.8721    4.3893 H       1  LIG   0.1682   0.1500 
33    H13      5.8766   -0.7900    6.3393 H       1  LIG   0.0712   0.0000 
34    H14      6.0259   -2.4979    5.9513 H       1  LIG   0.0820   0.0000 
@<TRIPOS>BOND
1     1     6     ar
2     1     2     ar
3     1     22    1
4     2     3     ar
5     2     23    1
6     3     4     ar
7     3     24    1
8     4     5     ar
9     4     7     1
10    5     6     ar
11    5     25    1
12    6     26    1
13    7     8     1
14    7     27    1
15    7     28    1
16    8     9     1
17    9     14    ar
18    9     10    ar
19    10    11    ar
20    10    29    1
21    11    12    ar
22    11    30    1
23    12    17    1
24    12    13    ar
25    13    14    ar
26    13    15    1
27    14    31    1
28    15    16    2
29    15    18    1
30    16    17    1
31    16    32    1
32    17    21    1
33    18    19    1
34    18    33    1
35    18    34    1
36    19    20    3
@<TRIPOS>SUBSTRUCTURE
1   LIG    1    
 
########## Number      : 946
########## Name        : ZINC00027263
########## Description : AM1BCC_CHARGES =   0.9998 ORIGINAL_CHARGES =   1.0000

@<TRIPOS>MOLECULE
ZINC00027263
39    41    1     0     0    
SMALL
USER_CHARGES
****
****
@<TRIPOS>ATOM
1     C1       3.0429   -8.2460   -2.2769 C.ar    1  LIG  -0.2141  -0.1500 
2     C2       2.7387   -7.2247   -1.3826 C.ar    1  LIG  -0.0441  -0.1500 
3     C3       3.4988   -7.0789   -0.2215 C.ar    1  LIG  -0.2448   0.0862 
4     C4       4.5337   -7.9643   -0.0053 C.ar    1  LIG   0.3709   0.3962 
5     N1       4.8556   -8.9688   -0.8556 N.ar    1  LIG  -0.6126  -0.6200 
6     C5       4.1016   -9.0844   -1.9708 C.ar    1  LIG   0.4210   0.1600 
7     C6       5.3694   -7.8630    1.1969 C.2     1  LIG   0.4748   0.4694 
8     O1       6.2857   -8.6634    1.3686 O.2     1  LIG  -0.4698  -0.5700 
9     C7       5.0923   -6.7776    2.2056 C.2     1  LIG   0.0898   0.1144 
10    C8       4.0727   -5.9314    1.9605 C.2     1  LIG  -0.1262   0.1544 
11    C9       3.2110   -6.0167    0.7454 C.2     1  LIG   0.5921   0.4694 
12    O2       2.2870   -5.2383    0.5376 O.2     1  LIG  -0.4769  -0.5700 
13    Cl1      3.6318   -4.6358    3.0275 Cl      1  LIG  -0.0833  -0.1400 
14    N2       5.9766   -6.8319    3.2738 N.pl3   1  LIG  -0.7457  -0.8691 
15    C10      6.0786   -5.9947    4.4515 C.3     1  LIG   0.1911   0.3691 
16    C11      7.2426   -6.4642    5.3264 C.3     1  LIG   0.0859   0.5030 
17    C12      8.8309   -5.7581    7.1260 C.3     1  LIG   0.0705   0.5030 
18    C13      9.0330   -4.7504    8.2472 C.3     1  LIG   0.0983   0.2800 
19    O3       7.9952   -4.8682    9.2208 O.3     1  LIG  -0.3689  -0.5600 
20    C14      6.7178   -4.5851    8.6492 C.3     1  LIG   0.0984   0.2800 
21    C15      6.3875   -5.5806    7.5461 C.3     1  LIG   0.0673   0.5030 
22    H1       6.6513   -7.5929    3.1992 H       1  LIG   0.4398   0.4000 
23    H2       2.4682   -8.3813   -3.1863 H       1  LIG   0.1686   0.1500 
24    H3       1.9116   -6.5552   -1.6034 H       1  LIG   0.1780   0.1500 
25    H4       4.3797   -9.8963   -2.6351 H       1  LIG   0.0478   0.1500 
26    H5       5.1442   -6.0540    5.0170 H       1  LIG   0.0547   0.0000 
27    H6       6.2510   -4.9550    4.1530 H       1  LIG   0.0795   0.0000 
28    H7       8.1678   -6.4773    4.7382 H       1  LIG   0.1175   0.0000 
29    H8       7.0736   -7.4665    5.7363 H       1  LIG   0.1092   0.0000 
30    H9       8.8279   -6.7867    7.5028 H       1  LIG   0.1181   0.0000 
31    H10      9.5913   -5.6393    6.3481 H       1  LIG   0.1131   0.0000 
32    H11      9.9846   -4.9449    8.7517 H       1  LIG   0.1328   0.0000 
33    H12      9.0645   -3.7227    7.8662 H       1  LIG   0.0677   0.0000 
34    H13      5.9734   -4.6594    9.4481 H       1  LIG   0.1321   0.0000 
35    H14      6.7024   -3.5531    8.2785 H       1  LIG   0.0678   0.0000 
36    H15      5.4344   -5.3285    7.0754 H       1  LIG   0.1134   0.0000 
37    H16      6.3680   -6.6087    7.9234 H       1  LIG   0.1172   0.0000 
38    N3       7.4734   -5.5172    6.4881 N.4     1  LIG  -0.6803  -0.9590 
39    H17      7.4869   -4.5609    6.1067 H       1  LIG   0.4491   0.4500 
@<TRIPOS>BOND
1     1     6     ar
2     1     2     ar
3     1     23    1
4     2     3     ar
5     2     24    1
6     3     11    1
7     3     4     ar
8     4     5     ar
9     4     7     1
10    5     6     ar
11    6     25    1
12    7     8     2
13    7     9     1
14    9     10    2
15    9     14    1
16    10    11    1
17    10    13    1
18    11    12    2
19    14    15    1
20    14    22    1
21    15    16    1
22    15    26    1
23    15    27    1
24    16    28    1
25    16    29    1
26    16    38    1
27    17    18    1
28    17    30    1
29    17    31    1
30    17    38    1
31    18    19    1
32    18    32    1
33    18    33    1
34    19    20    1
35    20    21    1
36    20    34    1
37    20    35    1
38    21    36    1
39    21    37    1
40    21    38    1
41    38    39    1
@<TRIPOS>SUBSTRUCTURE
1   LIG    1    
 
########## Number      : 947
########## Name        : ZINC00027264
########## Description : AM1BCC_CHARGES =   1.0002 ORIGINAL_CHARGES =   1.0000

@<TRIPOS>MOLECULE
ZINC00027264
39    41    1     0     0    
SMALL
USER_CHARGES
****
****
@<TRIPOS>ATOM
1     C1       1.1063   -6.3259   -6.5935 C.ar    1  LIG  -0.2320  -0.1500 
2     C2       1.6943   -5.2432   -5.9465 C.ar    1  LIG  -0.0375  -0.1500 
3     C3       1.7398   -5.2130   -4.5511 C.ar    1  LIG  -0.2752   0.0862 
4     C4       1.1891   -6.2785   -3.8659 C.ar    1  LIG   0.3976   0.3962 
5     N1       0.6096   -7.3470   -4.4642 N.ar    1  LIG  -0.6119  -0.6200 
6     C5       0.5828   -7.3436   -5.8146 C.ar    1  LIG   0.4387   0.1600 
7     C6       1.2039   -6.3087   -2.3999 C.2     1  LIG   0.4713   0.4694 
8     O1       0.7132   -7.2556   -1.7965 O.2     1  LIG  -0.4172  -0.5700 
9     C7       1.8312   -5.1568   -1.7053 C.2     1  LIG  -0.1051   0.1544 
10    C8       2.3789   -4.1002   -2.3366 C.2     1  LIG   0.0565   0.1144 
11    C9       2.3557   -4.0797   -3.8406 C.2     1  LIG   0.6078   0.4694 
12    O2       2.8271   -3.1599   -4.5004 O.2     1  LIG  -0.5552  -0.5700 
13    N2       2.9595   -3.0360   -1.6565 N.pl3   1  LIG  -0.7326  -0.8691 
14    C10      3.5845   -1.8378   -2.1829 C.3     1  LIG   0.1872   0.3691 
15    C11      4.0931   -0.9648   -1.0351 C.3     1  LIG   0.0866   0.5030 
16    C12      5.7002    0.8608   -0.4466 C.3     1  LIG   0.0701   0.5030 
17    C13      6.5121    2.0057   -1.0326 C.3     1  LIG   0.0991   0.2800 
18    O3       5.6530    2.9695   -1.6424 O.3     1  LIG  -0.3692  -0.5600 
19    C14      4.9231    2.3958   -2.7273 C.3     1  LIG   0.0987   0.2800 
20    C15      4.0252    1.2686   -2.2373 C.3     1  LIG   0.0668   0.5030 
21    Cl1      1.8205   -5.2496    0.0309 Cl      1  LIG  -0.0443  -0.1400 
22    H1       2.9266   -3.1284   -0.6431 H       1  LIG   0.4189   0.4000 
23    H2       1.0596   -6.3708   -7.6758 H       1  LIG   0.1672   0.1500 
24    H3       2.1103   -4.4351   -6.5425 H       1  LIG   0.1657   0.1500 
25    H4       0.1138   -8.2097   -6.2704 H       1  LIG   0.0504   0.1500 
26    H5       2.8522   -1.2827   -2.7769 H       1  LIG   0.0554   0.0000 
27    H6       4.4266   -2.1133   -2.8277 H       1  LIG   0.0929   0.0000 
28    H7       4.7712   -1.5456   -0.3990 H       1  LIG   0.1157   0.0000 
29    H8       3.2757   -0.5788   -0.4153 H       1  LIG   0.1041   0.0000 
30    H9       4.9895    1.2143    0.3083 H       1  LIG   0.1164   0.0000 
31    H10      6.3531    0.0908   -0.0244 H       1  LIG   0.1123   0.0000 
32    H11      7.0656    2.5119   -0.2356 H       1  LIG   0.1315   0.0000 
33    H12      7.2433    1.6480   -1.7674 H       1  LIG   0.0676   0.0000 
34    H13      4.3118    3.1880   -3.1710 H       1  LIG   0.1310   0.0000 
35    H14      5.6226    2.0482   -3.4969 H       1  LIG   0.0679   0.0000 
36    H15      3.5092    0.7973   -3.0770 H       1  LIG   0.1163   0.0000 
37    H16      3.3028    1.6227   -1.4942 H       1  LIG   0.1148   0.0000 
38    N3       4.8841    0.2196   -1.5557 N.4     1  LIG  -0.6785  -0.9590 
39    H17      5.5530   -0.1401   -2.2511 H       1  LIG   0.4504   0.4500 
@<TRIPOS>BOND
1     1     6     ar
2     1     2     ar
3     1     23    1
4     2     3     ar
5     2     24    1
6     3     11    1
7     3     4     ar
8     4     5     ar
9     4     7     1
10    5     6     ar
11    6     25    1
12    7     8     2
13    7     9     1
14    9     10    2
15    9     21    1
16    10    11    1
17    10    13    1
18    11    12    2
19    13    14    1
20    13    22    1
21    14    15    1
22    14    26    1
23    14    27    1
24    15    28    1
25    15    29    1
26    15    38    1
27    16    17    1
28    16    30    1
29    16    31    1
30    16    38    1
31    17    18    1
32    17    32    1
33    17    33    1
34    18    19    1
35    19    20    1
36    19    34    1
37    19    35    1
38    20    36    1
39    20    37    1
40    20    38    1
41    38    39    1
@<TRIPOS>SUBSTRUCTURE
1   LIG    1    
 
########## Number      : 948
########## Name        : ZINC00027320
########## Description : AM1BCC_CHARGES =  -0.0001 ORIGINAL_CHARGES =   0.0000

@<TRIPOS>MOLECULE
ZINC00027320
18    19    1     0     0    
SMALL
USER_CHARGES
****
****
@<TRIPOS>ATOM
1     C1       2.6370    0.5081    4.9514 C.ar    1  LIG  -0.1212  -0.1500 
2     C2       1.9065   -0.1680    5.9248 C.ar    1  LIG  -0.1323  -0.1500 
3     C3       2.3271   -1.4229    6.3751 C.ar    1  LIG  -0.1144  -0.1500 
4     C4       3.4866   -2.0184    5.8557 C.ar    1  LIG  -0.1147   0.0540 
5     C5       4.2125   -1.3238    4.8745 C.ar    1  LIG  -0.1019  -0.1500 
6     C6       3.7896   -0.0695    4.4263 C.ar    1  LIG  -0.1338  -0.1500 
7     C7       3.9303   -3.3308    6.3236 C.2     1  LIG   0.2662   0.2348 
8     C8       3.3488   -4.1874    7.2943 C.2     1  LIG   0.2076   0.1388 
9     N1       4.0671   -5.3042    7.4323 N.2     1  LIG  -0.4935  -0.7068 
10    N2       5.0463   -5.0825    6.5483 N.pl3   1  LIG   0.1404   0.5660 
11    N3       5.0351   -3.9377    5.8531 N.2     1  LIG  -0.4896  -0.7068 
12    H1       5.7818   -5.7666    6.4072 H       1  LIG   0.3495   0.2700 
13    H2       2.3088    1.4829    4.6028 H       1  LIG   0.1332   0.1500 
14    H3       1.0065    0.2807    6.3362 H       1  LIG   0.1335   0.1500 
15    H4       1.7286   -1.9173    7.1359 H       1  LIG   0.1313   0.1500 
16    H5       5.1176   -1.7452    4.4424 H       1  LIG   0.1479   0.1500 
17    H6       4.3622    0.4551    3.6666 H       1  LIG   0.1344   0.1500 
18    H7       2.4591   -4.0560    7.8928 H       1  LIG   0.0573   0.1500 
@<TRIPOS>BOND
1     1     6     ar
2     1     2     ar
3     1     13    1
4     2     3     ar
5     2     14    1
6     3     4     ar
7     3     15    1
8     4     5     ar
9     4     7     1
10    5     6     ar
11    5     16    1
12    6     17    1
13    7     8     1
14    7     11    2
15    8     18    1
16    8     9     2
17    9     10    1
18    10    11    1
19    10    12    1
@<TRIPOS>SUBSTRUCTURE
1   LIG    1    
 
########## Number      : 949
########## Name        : ZINC00027631
########## Description : AM1BCC_CHARGES =   2.0000 ORIGINAL_CHARGES =   2.0000

@<TRIPOS>MOLECULE
ZINC00027631
50    52    1     0     0    
SMALL
USER_CHARGES
****
****
@<TRIPOS>ATOM
1     C1       5.4228   -9.7600    1.5162 C.3     1  LIG  -0.1010   0.0000 
2     C2       4.4410   -9.4906    0.3825 C.3     1  LIG  -0.1071   0.0000 
3     C3       3.5101   -8.3322    0.7089 C.3     1  LIG   0.1148   0.5030 
4     C4       5.2559   -7.3394    2.2065 C.3     1  LIG   0.1084   0.5030 
5     C5       6.1909   -8.4974    1.8872 C.3     1  LIG  -0.1066   0.0000 
6     C6       3.4315   -5.8976    1.2306 C.3     1  LIG   0.3123   0.8031 
7     N1       4.1883   -4.6533    1.2648 N.pl3   1  LIG  -0.4604  -0.6602 
8     C7       4.8872   -4.1722    0.0869 C.3     1  LIG   0.0669   0.3001 
9     C8       5.3445   -2.7736    0.4575 C.3     1  LIG   0.0687   0.3001 
10    N2       5.1567   -2.6981    1.8921 N.pl3   1  LIG  -0.4526  -0.6602 
11    C9       4.3876   -3.7856    2.3615 C.2     1  LIG   0.5210   0.5000 
12    S1       3.8305   -3.9970    3.9224 S.2     1  LIG  -0.4512  -0.3800 
13    C10      5.5583   -1.5090    2.6269 C.3     1  LIG   0.3066   0.8031 
14    C11      6.8321   -0.7023    4.6124 C.3     1  LIG   0.1173   0.5030 
15    C12      7.8302   -1.1207    5.6818 C.3     1  LIG  -0.1052   0.0000 
16    C13      9.1599   -1.5502    5.0738 C.3     1  LIG  -0.1003   0.0000 
17    C14      8.9576   -2.6372    4.0252 C.3     1  LIG  -0.1045   0.0000 
18    C15      7.9542   -2.2165    2.9609 C.3     1  LIG   0.1141   0.5030 
19    H1       6.1240  -10.5486    1.2212 H       1  LIG   0.1027   0.0000 
20    H2       4.8770  -10.1277    2.3938 H       1  LIG   0.0742   0.0000 
21    H3       4.9971   -9.2678   -0.5367 H       1  LIG   0.0734   0.0000 
22    H4       3.8499  -10.3920    0.1860 H       1  LIG   0.1147   0.0000 
23    H5       2.8831   -8.0916   -0.1559 H       1  LIG   0.1001   0.0000 
24    H6       2.8743   -8.5492    1.5745 H       1  LIG   0.1081   0.0000 
25    H7       5.8369   -6.4269    2.3677 H       1  LIG   0.0930   0.0000 
26    H8       4.6371   -7.5448    3.0869 H       1  LIG   0.1135   0.0000 
27    H9       6.8333   -8.6988    2.7518 H       1  LIG   0.1075   0.0000 
28    H10      6.8526   -8.2166    1.0581 H       1  LIG   0.0682   0.0000 
29    H11      2.7494   -5.8498    0.3750 H       1  LIG   0.1256   0.0000 
30    H12      2.8560   -6.0561    2.1464 H       1  LIG   0.1469   0.0000 
31    H13      5.7422   -4.8281   -0.1049 H       1  LIG   0.0850   0.0000 
32    H14      4.2223   -4.1730   -0.7817 H       1  LIG   0.1006   0.0000 
33    H15      6.3904   -2.5930    0.1936 H       1  LIG   0.1003   0.0000 
34    H16      4.7129   -2.0113   -0.0109 H       1  LIG   0.0965   0.0000 
35    H17      5.9298   -0.7350    1.9469 H       1  LIG   0.1268   0.0000 
36    H18      4.6973   -1.1349    3.1897 H       1  LIG   0.1154   0.0000 
37    H19      7.1724    0.1780    4.0558 H       1  LIG   0.1007   0.0000 
38    H20      5.8555   -0.4967    5.0628 H       1  LIG   0.1037   0.0000 
39    H21      7.9947   -0.2889    6.3758 H       1  LIG   0.1127   0.0000 
40    H22      7.4138   -1.9483    6.2697 H       1  LIG   0.0763   0.0000 
41    H23      9.6488   -0.6832    4.6127 H       1  LIG   0.0718   0.0000 
42    H24      9.8287   -1.9138    5.8619 H       1  LIG   0.1018   0.0000 
43    H25      9.9169   -2.8740    3.5514 H       1  LIG   0.1052   0.0000 
44    H26      8.6095   -3.5555    4.5148 H       1  LIG   0.0705   0.0000 
45    H27      7.7554   -3.0529    2.2844 H       1  LIG   0.0886   0.0000 
46    H28      8.3054   -1.3529    2.3854 H       1  LIG   0.0991   0.0000 
47    N3       4.3270   -7.1008    1.0369 N.4     1  LIG  -0.7222  -0.9590 
48    H29      4.9101   -6.9001    0.2152 H       1  LIG   0.4401   0.4500 
49    N4       6.6502   -1.8290    3.6204 N.4     1  LIG  -0.7223  -0.9590 
50    H30      6.3145   -2.6468    4.1466 H       1  LIG   0.4803   0.4500 
@<TRIPOS>BOND
1     1     5     1
2     1     2     1
3     1     19    1
4     1     20    1
5     2     3     1
6     2     21    1
7     2     22    1
8     3     23    1
9     3     24    1
10    3     47    1
11    4     5     1
12    4     25    1
13    4     26    1
14    4     47    1
15    5     27    1
16    5     28    1
17    6     7     1
18    6     29    1
19    6     30    1
20    6     47    1
21    7     11    1
22    7     8     1
23    8     9     1
24    8     31    1
25    8     32    1
26    9     10    1
27    9     33    1
28    9     34    1
29    10    11    1
30    10    13    1
31    11    12    2
32    13    35    1
33    13    36    1
34    13    49    1
35    14    15    1
36    14    37    1
37    14    38    1
38    14    49    1
39    15    16    1
40    15    39    1
41    15    40    1
42    16    17    1
43    16    41    1
44    16    42    1
45    17    18    1
46    17    43    1
47    17    44    1
48    18    45    1
49    18    46    1
50    18    49    1
51    47    48    1
52    49    50    1
@<TRIPOS>SUBSTRUCTURE
1   LIG    1    
 
########## Number      : 950
########## Name        : ZINC00027651
########## Description : AM1BCC_CHARGES =  -0.0002 ORIGINAL_CHARGES =   0.0000

@<TRIPOS>MOLECULE
ZINC00027651
29    30    1     0     0    
SMALL
USER_CHARGES
****
****
@<TRIPOS>ATOM
1     C1       6.8594   -8.8290    2.3296 C.ar    1  LIG  -0.1121  -0.1500 
2     C2       7.2567  -10.0789    1.8520 C.ar    1  LIG  -0.1295  -0.1500 
3     C3       6.8666  -10.4894    0.5767 C.ar    1  LIG   0.0245   0.1770 
4     C4       6.0821   -9.6606   -0.2261 C.ar    1  LIG  -0.1299  -0.1500 
5     C5       5.6833   -8.4101    0.2490 C.ar    1  LIG  -0.0862  -0.1500 
6     C6       6.0735   -7.9974    1.5267 C.ar    1  LIG  -0.1203   0.0862 
7     C7       5.6712   -6.6840    2.0614 C.2     1  LIG   0.3562   0.3038 
8     N1       4.9450   -5.8612    1.3766 N.2     1  LIG  -0.4110  -0.5120 
9     N2       4.6652   -4.6983    2.0150 N.am    1  LIG  -0.3405  -0.3680 
10    C8       3.8796   -3.7595    1.3709 C.2     1  LIG   0.6975   0.5438 
11    O1       3.3793   -3.9011    0.2580 O.2     1  LIG  -0.5342  -0.5700 
12    C9       3.6249   -2.5057    2.1269 C.ar    1  LIG  -0.1512   0.0862 
13    C10      4.5529   -1.9892    3.0399 C.ar    1  LIG  -0.0950  -0.1500 
14    C11      4.2769   -0.8007    3.7205 C.ar    1  LIG  -0.1343  -0.1500 
15    C12      3.0792   -0.1267    3.4844 C.ar    1  LIG   0.0396   0.1770 
16    C13      2.1552   -0.6276    2.5688 C.ar    1  LIG  -0.1321  -0.1500 
17    C14      2.4297   -1.8146    1.8870 C.ar    1  LIG  -0.0664  -0.1500 
18    Cl1      2.7425    1.3380    4.3247 Cl      1  LIG  -0.0785  -0.1770 
19    Cl2      7.3576  -12.0317   -0.0112 Cl      1  LIG  -0.0919  -0.1770 
20    H1       5.0198   -4.5741    2.9573 H       1  LIG   0.2977   0.3700 
21    H2       7.1689   -8.5193    3.3243 H       1  LIG   0.1343   0.1500 
22    H3       7.8678  -10.7209    2.4810 H       1  LIG   0.1480   0.1500 
23    H4       5.7756   -9.9756   -1.2201 H       1  LIG   0.1509   0.1500 
24    H5       5.0724   -7.7749   -0.3869 H       1  LIG   0.1625   0.1500 
25    H6       6.0233   -6.4376    3.0805 H       1  LIG  -0.0126   0.0600 
26    H7       5.5048   -2.4790    3.2239 H       1  LIG   0.1394   0.1500 
27    H8       5.0057   -0.4092    4.4256 H       1  LIG   0.1535   0.1500 
28    H9       1.2215   -0.1058    2.3764 H       1  LIG   0.1567   0.1500 
29    H10      1.6985   -2.1936    1.1769 H       1  LIG   0.1647   0.1500 
@<TRIPOS>BOND
1     1     6     ar
2     1     2     ar
3     1     21    1
4     2     3     ar
5     2     22    1
6     3     4     ar
7     3     19    1
8     4     5     ar
9     4     23    1
10    5     6     ar
11    5     24    1
12    6     7     1
13    7     8     2
14    7     25    1
15    8     9     1
16    9     10    am
17    9     20    1
18    10    11    2
19    10    12    1
20    12    17    ar
21    12    13    ar
22    13    14    ar
23    13    26    1
24    14    15    ar
25    14    27    1
26    15    16    ar
27    15    18    1
28    16    17    ar
29    16    28    1
30    17    29    1
@<TRIPOS>SUBSTRUCTURE
1   LIG    1    
 
########## Number      : 951
########## Name        : ZINC00027656
########## Description : AM1BCC_CHARGES =   0.0003 ORIGINAL_CHARGES =   0.0000

@<TRIPOS>MOLECULE
ZINC00027656
31    32    1     0     0    
SMALL
USER_CHARGES
****
****
@<TRIPOS>ATOM
1     C1       5.1423  -11.0655   -1.0885 C.ar    1  LIG  -0.1433  -0.1500 
2     C2       3.8516  -10.5933   -0.8787 C.ar    1  LIG  -0.1078  -0.1500 
3     C3       3.6545   -9.3408   -0.2925 C.ar    1  LIG  -0.1705  -0.1500 
4     C4       4.7427   -8.5465    0.1065 C.ar    1  LIG   0.0484   0.1170 
5     C5       6.0331   -9.0243   -0.1320 C.ar    1  LIG  -0.1464  -0.1500 
6     C6       6.2304  -10.2793   -0.7205 C.ar    1  LIG  -0.1069  -0.1500 
7     N1       4.4232   -7.2907    0.6801 N.pl3   1  LIG  -0.3987  -0.5470 
8     C7       5.1833   -6.3542    1.3936 C.2     1  LIG   0.4971   0.5000 
9     S1       6.7162   -6.5545    2.0545 S.2     1  LIG  -0.4826  -0.3800 
10    N2       4.4479   -5.1679    1.5336 N.pl3   1  LIG  -0.3101  -0.4300 
11    N3       4.9390   -4.0783    2.2298 N.am    1  LIG  -0.4470  -0.4300 
12    C8       4.0488   -3.1213    2.6776 C.2     1  LIG   0.6632   0.5438 
13    O1       2.8380   -3.1475    2.4708 O.2     1  LIG  -0.5869  -0.5700 
14    C9       4.6393   -1.9883    3.4366 C.ar    1  LIG  -0.1071   0.0862 
15    C10      5.8352   -2.1101    4.1455 C.ar    1  LIG  -0.2131  -0.1500 
16    C11      6.2984   -0.9976    4.8320 C.ar    1  LIG   0.3900   0.1600 
17    N4       5.6649    0.1951    4.8616 N.ar    1  LIG  -0.6424  -0.6200 
18    C12      4.5051    0.2765    4.1747 C.ar    1  LIG   0.3885   0.1600 
19    C13      3.9524   -0.7727    3.4574 C.ar    1  LIG  -0.1940  -0.1500 
20    H1       3.4397   -7.0454    0.6024 H       1  LIG   0.3121   0.3700 
21    H2       3.5273   -5.0521    1.1208 H       1  LIG   0.2867   0.3700 
22    H3       5.9457   -4.0336    2.3474 H       1  LIG   0.3526   0.3700 
23    H4       5.3011  -12.0374   -1.5460 H       1  LIG   0.1364   0.1500 
24    H5       2.9969  -11.1965   -1.1710 H       1  LIG   0.1354   0.1500 
25    H6       2.6333   -8.9975   -0.1400 H       1  LIG   0.1307   0.1500 
26    H7       6.9196   -8.4427    0.0845 H       1  LIG   0.1867   0.1500 
27    H8       7.2408  -10.6365   -0.9011 H       1  LIG   0.1391   0.1500 
28    H9       6.3970   -3.0356    4.1951 H       1  LIG   0.1597   0.1500 
29    H10      7.2222   -1.0418    5.4004 H       1  LIG   0.0317   0.1500 
30    H11      4.0111    1.2421    4.2160 H       1  LIG   0.0317   0.1500 
31    H12      3.0161   -0.6324    2.9275 H       1  LIG   0.1671   0.1500 
@<TRIPOS>BOND
1     1     6     ar
2     1     2     ar
3     1     23    1
4     2     3     ar
5     2     24    1
6     3     4     ar
7     3     25    1
8     4     5     ar
9     4     7     1
10    5     6     ar
11    5     26    1
12    6     27    1
13    7     8     1
14    7     20    1
15    8     9     2
16    8     10    1
17    10    11    1
18    10    21    1
19    11    12    am
20    11    22    1
21    12    13    2
22    12    14    1
23    14    19    ar
24    14    15    ar
25    15    16    ar
26    15    28    1
27    16    17    ar
28    16    29    1
29    17    18    ar
30    18    19    ar
31    18    30    1
32    19    31    1
@<TRIPOS>SUBSTRUCTURE
1   LIG    1    
 
########## Number      : 952
########## Name        : ZINC00027662
########## Description : AM1BCC_CHARGES =   0.0000 ORIGINAL_CHARGES =  -0.0000

@<TRIPOS>MOLECULE
ZINC00027662
23    23    1     0     0    
SMALL
USER_CHARGES
****
****
@<TRIPOS>ATOM
1     C1       5.1141   -4.9288    3.6777 C.ar    1  LIG  -0.1082  -0.1500 
2     C2       5.0126   -6.0184    2.8194 C.ar    1  LIG  -0.1707  -0.1500 
3     C3       4.6163   -5.7764    1.5118 C.ar    1  LIG   0.3567   0.3962 
4     N1       4.3204   -4.5447    1.0315 N.ar    1  LIG  -0.6148  -0.6200 
5     C4       4.4179   -3.5036    1.8946 C.ar    1  LIG   0.3565   0.3962 
6     C5       4.8174   -3.6475    3.2182 C.ar    1  LIG  -0.1925  -0.1500 
7     C6       4.0841   -2.1883    1.2863 C.2     1  LIG   0.5311   0.5438 
8     O1       4.1061   -2.0753    0.0621 O.2     1  LIG  -0.5571  -0.5700 
9     N2       3.7441   -1.1692    2.1626 N.am    1  LIG  -0.4320  -0.4210 
10    N3       3.4250    0.0842    1.6562 N.3     1  LIG  -0.6331  -0.7290 
11    C7       4.4962   -6.8987    0.5461 C.2     1  LIG   0.5402   0.5438 
12    O2       4.7367   -8.0497    0.8971 O.2     1  LIG  -0.6123  -0.5700 
13    N4       4.1033   -6.5170   -0.7255 N.am    1  LIG  -0.4284  -0.4210 
14    N5       3.9544   -7.4715   -1.7194 N.3     1  LIG  -0.6189  -0.7290 
15    H1       3.6748   -1.2921    3.1672 H       1  LIG   0.3262   0.3700 
16    H2       4.2208    0.3997    1.1003 H       1  LIG   0.3593   0.3600 
17    H3       2.6583   -0.0412    0.9941 H       1  LIG   0.3462   0.3600 
18    H4       3.9195   -5.5438   -0.9561 H       1  LIG   0.3578   0.3700 
19    H5       4.8469   -7.9575   -1.8112 H       1  LIG   0.3447   0.3600 
20    H6       3.2925   -8.1683   -1.3764 H       1  LIG   0.3543   0.3600 
21    H7       5.4307   -5.0766    4.7066 H       1  LIG   0.1528   0.1500 
22    H8       5.2447   -7.0159    3.1767 H       1  LIG   0.1801   0.1500 
23    H9       4.9245   -2.8086    3.8958 H       1  LIG   0.1621   0.1500 
@<TRIPOS>BOND
1     1     6     ar
2     1     2     ar
3     1     21    1
4     2     3     ar
5     2     22    1
6     3     4     ar
7     3     11    1
8     4     5     ar
9     5     6     ar
10    5     7     1
11    6     23    1
12    7     8     2
13    7     9     am
14    9     10    1
15    9     15    1
16    10    16    1
17    10    17    1
18    11    12    2
19    11    13    am
20    13    14    1
21    13    18    1
22    14    19    1
23    14    20    1
@<TRIPOS>SUBSTRUCTURE
1   LIG    1    
 
########## Number      : 953
########## Name        : ZINC00027665
########## Description : AM1BCC_CHARGES =  -0.0001 ORIGINAL_CHARGES =  -0.0000

@<TRIPOS>MOLECULE
ZINC00027665
18    19    1     0     0    
SMALL
USER_CHARGES
****
****
@<TRIPOS>ATOM
1     C1       5.8442   -8.9092   -1.5277 C.ar    1  LIG  -0.1248  -0.1500 
2     C2       4.9479   -9.5646   -0.6905 C.ar    1  LIG  -0.1261  -0.1500 
3     C3       3.7261   -8.9782   -0.3495 C.ar    1  LIG  -0.0851  -0.1500 
4     C4       3.4274   -7.7103   -0.8744 C.ar    1  LIG  -0.1007   0.0400 
5     C5       4.3103   -7.0345   -1.7154 C.ar    1  LIG   0.1072   0.2272 
6     C6       5.5382   -7.6471   -2.0452 C.ar    1  LIG  -0.0836  -0.1500 
7     N1       3.8736   -5.7939   -2.1503 N.2     1  LIG  -0.5855  -0.5653 
8     C7       2.6799   -5.5144   -1.6646 C.2     1  LIG   0.4807   0.4621 
9     S1       2.0257   -6.7434   -0.6411 S.3     1  LIG  -0.0213  -0.0800 
10    N2       1.9580   -4.3863   -1.8807 N.pl3   1  LIG  -0.5103  -0.4950 
11    N3       2.4385   -3.5417   -2.8681 N.3     1  LIG  -0.6427  -0.7090 
12    H1       1.0087   -4.2681   -1.5412 H       1  LIG   0.4101   0.4000 
13    H2       2.1301   -2.5904   -2.6684 H       1  LIG   0.3702   0.3600 
14    H3       3.4590   -3.5137   -2.8325 H       1  LIG   0.3484   0.3600 
15    H4       6.7900   -9.3798   -1.7826 H       1  LIG   0.1366   0.1500 
16    H5       5.1992  -10.5456   -0.2954 H       1  LIG   0.1364   0.1500 
17    H6       3.0303   -9.4945    0.3047 H       1  LIG   0.1398   0.1500 
18    H7       6.2428   -7.1408   -2.6985 H       1  LIG   0.1506   0.1500 
@<TRIPOS>BOND
1     1     6     ar
2     1     2     ar
3     1     15    1
4     2     3     ar
5     2     16    1
6     3     4     ar
7     3     17    1
8     4     9     1
9     4     5     ar
10    5     6     ar
11    5     7     1
12    6     18    1
13    7     8     2
14    8     9     1
15    8     10    1
16    10    11    1
17    10    12    1
18    11    13    1
19    11    14    1
@<TRIPOS>SUBSTRUCTURE
1   LIG    1    
 
########## Number      : 954
########## Name        : ZINC00027667
########## Description : AM1BCC_CHARGES =  -0.9998 ORIGINAL_CHARGES =  -1.0000

@<TRIPOS>MOLECULE
ZINC00027667
23    23    1     0     0    
SMALL
USER_CHARGES
****
****
@<TRIPOS>ATOM
1     C1       4.4371   -9.2259    0.0573 C.ar    1  LIG  -0.1505  -0.1500 
2     C2       5.2235   -8.0750   -0.0382 C.ar    1  LIG  -0.1252  -0.1500 
3     C3       4.7143   -6.8453    0.3749 C.ar    1  LIG  -0.1347  -0.1500 
4     C4       3.4123   -6.7836    0.8700 C.ar    1  LIG   0.1363   0.0825 
5     C5       2.6220   -7.9265    0.9857 C.ar    1  LIG  -0.1347  -0.1500 
6     C6       3.1397   -9.1519    0.5702 C.ar    1  LIG  -0.1253  -0.1500 
7     O1       2.9106   -5.5597    1.3180 O.3     1  LIG  -0.4002  -0.2325 
8     C7       2.2499   -4.8448    0.3204 C.2     1  LIG   0.6402   0.6590 
9     O2       2.0910   -5.1938   -0.8416 O.2     1  LIG  -0.5400  -0.5700 
10    C8       1.7561   -3.5485    0.9235 C.3     1  LIG  -0.1026   0.0610 
11    C9       1.0153   -2.6889   -0.0925 C.3     1  LIG  -0.2029  -0.1060 
12    C10      0.4876   -1.3595    0.4533 C.2     1  LIG   0.9124   0.9060 
13    O3       0.7177   -1.1174    1.6697 O.co2   1  LIG  -0.8528  -0.9000 
14    H1       4.8376  -10.1830   -0.2652 H       1  LIG   0.1200   0.1500 
15    H2       6.2336   -8.1398   -0.4325 H       1  LIG   0.1233   0.1500 
16    H3       5.3256   -5.9507    0.3075 H       1  LIG   0.1447   0.1500 
17    H4       1.6164   -7.8675    1.3904 H       1  LIG   0.1445   0.1500 
18    H5       2.5351  -10.0511    0.6473 H       1  LIG   0.1232   0.1500 
19    H6       1.0904   -3.7940    1.7589 H       1  LIG   0.0918   0.0000 
20    H7       2.6233   -3.0018    1.3113 H       1  LIG   0.0905   0.0000 
21    H8       1.6777   -2.4653   -0.9384 H       1  LIG   0.0384   0.0000 
22    H9       0.1619   -3.2486   -0.4958 H       1  LIG   0.0386   0.0000 
23    O4      -0.1250   -0.6571   -0.4020 O.co2   1  LIG  -0.8348  -0.9000 
@<TRIPOS>BOND
1     1     6     ar
2     1     2     ar
3     1     14    1
4     2     3     ar
5     2     15    1
6     3     4     ar
7     3     16    1
8     4     5     ar
9     4     7     1
10    5     6     ar
11    5     17    1
12    6     18    1
13    7     8     1
14    8     9     2
15    8     10    1
16    10    11    1
17    10    19    1
18    10    20    1
19    11    12    1
20    11    21    1
21    11    22    1
22    12    13    2
23    12    23    1
@<TRIPOS>SUBSTRUCTURE
1   LIG    1    
 
########## Number      : 955
########## Name        : ZINC00027675
########## Description : AM1BCC_CHARGES =  -0.0002 ORIGINAL_CHARGES =   0.0000

@<TRIPOS>MOLECULE
ZINC00027675
25    26    1     0     0    
SMALL
USER_CHARGES
****
****
@<TRIPOS>ATOM
1     C1       4.8509   -4.8851    4.6534 C.3     1  LIG  -0.0792   0.0000 
2     C2       6.0126   -5.3435    3.7749 C.3     1  LIG  -0.0974   0.0000 
3     C3       5.5784   -6.4663    2.8386 C.3     1  LIG   0.0877   0.3001 
4     N1       4.4052   -6.0780    2.0533 N.am    1  LIG  -0.4546  -0.6602 
5     C4       3.2501   -5.6284    2.8436 C.3     1  LIG   0.1006   0.3001 
6     C5       3.6449   -4.5025    3.7990 C.3     1  LIG  -0.0981   0.0000 
7     C6       4.4598   -6.1500    0.6524 C.2     1  LIG   0.6010   0.7160 
8     O1       5.4976   -6.3737    0.0300 O.2     1  LIG  -0.5779  -0.5700 
9     C7       3.2126   -5.9529   -0.0858 C.2     1  LIG   0.3428   0.2028 
10    C8       2.9980   -4.9837   -1.1296 C.2     1  LIG  -0.1143   0.1230 
11    C9       1.7291   -5.1173   -1.6355 C.2     1  LIG  -0.0450   0.1640 
12    S1       0.9255   -6.3791   -0.8472 S.3     1  LIG   0.3010   0.1807 
13    N2       2.1862   -6.7808    0.1522 N.2     1  LIG  -0.5065  -0.5095 
14    Cl1      0.9479   -4.2237   -2.8684 Cl      1  LIG   0.0118  -0.1240 
15    Cl2      4.1625   -3.8343   -1.6254 Cl      1  LIG   0.0014  -0.1230 
16    H1       5.1609   -4.0299    5.2641 H       1  LIG   0.0460   0.0000 
17    H2       4.5713   -5.6906    5.3434 H       1  LIG   0.0430   0.0000 
18    H3       6.3755   -4.4938    3.1834 H       1  LIG   0.0522   0.0000 
19    H4       6.8438   -5.6818    4.4030 H       1  LIG   0.0526   0.0000 
20    H5       6.4117   -6.7484    2.1875 H       1  LIG   0.0853   0.0000 
21    H6       5.3011   -7.3571    3.4148 H       1  LIG   0.0434   0.0000 
22    H7       2.4388   -5.2676    2.2088 H       1  LIG   0.0544   0.0000 
23    H8       2.8806   -6.4957    3.4029 H       1  LIG   0.0485   0.0000 
24    H9       2.7967   -4.2478    4.4440 H       1  LIG   0.0510   0.0000 
25    H10      3.8900   -3.6049    3.2172 H       1  LIG   0.0501   0.0000 
@<TRIPOS>BOND
1     1     6     1
2     1     2     1
3     1     16    1
4     1     17    1
5     2     3     1
6     2     18    1
7     2     19    1
8     3     4     1
9     3     20    1
10    3     21    1
11    4     5     1
12    4     7     am
13    5     6     1
14    5     22    1
15    5     23    1
16    6     24    1
17    6     25    1
18    7     8     2
19    7     9     1
20    9     13    2
21    9     10    1
22    10    11    2
23    10    15    1
24    11    12    1
25    11    14    1
26    12    13    1
@<TRIPOS>SUBSTRUCTURE
1   LIG    1    
 
########## Number      : 956
########## Name        : ZINC00027692
########## Description : AM1BCC_CHARGES =   0.0003 ORIGINAL_CHARGES =   0.0000

@<TRIPOS>MOLECULE
ZINC00027692
38    39    1     0     0    
SMALL
USER_CHARGES
****
****
@<TRIPOS>ATOM
1     C1       5.5124  -11.8035    0.7097 C.3     1  LIG  -0.1266   0.0000 
2     C2       5.8195  -10.6361    1.6276 C.3     1  LIG   0.1415   0.2800 
3     O1       4.6793   -9.7653    1.7129 O.3     1  LIG  -0.4329  -0.4300 
4     C3       4.5724   -8.8015    0.7624 C.2     1  LIG   0.6683   0.7056 
5     O2       5.3331   -8.5948   -0.1703 O.2     1  LIG  -0.5598  -0.5700 
6     C4       3.3529   -8.0021    1.0358 C.2     1  LIG  -0.2853  -0.1238 
7     C5       2.4208   -7.8579    0.0758 C.2     1  LIG   0.1442  -0.0292 
8     N1       1.3048   -7.0958    0.3388 N.am    1  LIG  -0.4838  -0.5390 
9     C6       1.0430   -6.4643    1.5354 C.2     1  LIG   0.7968   0.6900 
10    O3       0.0196   -5.8032    1.7156 O.2     1  LIG  -0.6456  -0.5700 
11    N2       1.9917   -6.6214    2.5196 N.am    1  LIG  -0.5344  -0.7301 
12    C7       3.2363   -7.3671    2.4049 C.3     1  LIG   0.2029   0.5818 
13    C8       4.4045   -6.4250    2.7251 C.ar    1  LIG  -0.0750  -0.1435 
14    C9       4.7219   -5.3970    1.8109 C.ar    1  LIG  -0.1125  -0.1500 
15    C10      5.7715   -4.5118    2.0506 C.ar    1  LIG  -0.1001  -0.1500 
16    C11      6.5216   -4.6287    3.2128 C.ar    1  LIG  -0.1260  -0.1500 
17    C12      6.2159   -5.6247    4.1389 C.ar    1  LIG  -0.0903  -0.1500 
18    C13      5.1577   -6.5253    3.9185 C.ar    1  LIG  -0.1521  -0.1435 
19    C14      4.8693   -7.5646    4.9724 C.3     1  LIG   0.6854   1.1635 
20    F1       3.5790   -7.5261    5.4080 F       1  LIG  -0.2430  -0.3400 
21    F2       5.0838   -8.8338    4.5288 F       1  LIG  -0.2298  -0.3400 
22    F3       5.6321   -7.4386    6.0953 F       1  LIG  -0.2364  -0.3400 
23    C15      2.4458   -8.4756   -1.2939 C.3     1  LIG  -0.0985   0.1382 
24    H1       0.6125   -6.9950   -0.3976 H       1  LIG   0.3467   0.3700 
25    H2       1.7945   -6.1774    3.4106 H       1  LIG   0.3442   0.3700 
26    H3       6.3529  -12.5023    0.6759 H       1  LIG   0.0458   0.0000 
27    H4       4.6210  -12.3386    1.0534 H       1  LIG   0.0467   0.0000 
28    H5       5.3033  -11.4578   -0.3077 H       1  LIG   0.0560   0.0000 
29    H6       6.0223  -11.0006    2.6397 H       1  LIG   0.0702   0.0000 
30    H7       6.7072  -10.0871    1.2936 H       1  LIG   0.0582   0.0000 
31    H8       3.2306   -8.1826    3.1427 H       1  LIG   0.1055   0.0000 
32    H9       4.1468   -5.2771    0.8950 H       1  LIG   0.1495   0.1500 
33    H10      6.0005   -3.7323    1.3297 H       1  LIG   0.1433   0.1500 
34    H11      7.3413   -3.9420    3.4037 H       1  LIG   0.1444   0.1500 
35    H12      6.8146   -5.6887    5.0453 H       1  LIG   0.1547   0.1500 
36    H13      3.1932   -9.2665   -1.3984 H       1  LIG   0.1011   0.0000 
37    H14      1.4768   -8.9333   -1.5238 H       1  LIG   0.0613   0.0000 
38    H15      2.6500   -7.7095   -2.0491 H       1  LIG   0.0657   0.0000 
@<TRIPOS>BOND
1     1     2     1
2     1     26    1
3     1     27    1
4     1     28    1
5     2     3     1
6     2     29    1
7     2     30    1
8     3     4     1
9     4     5     2
10    4     6     1
11    6     12    1
12    6     7     2
13    7     8     1
14    7     23    1
15    8     9     am
16    8     24    1
17    9     10    2
18    9     11    am
19    11    12    1
20    11    25    1
21    12    13    1
22    12    31    1
23    13    18    ar
24    13    14    ar
25    14    15    ar
26    14    32    1
27    15    16    ar
28    15    33    1
29    16    17    ar
30    16    34    1
31    17    18    ar
32    17    35    1
33    18    19    1
34    19    20    1
35    19    21    1
36    19    22    1
37    23    36    1
38    23    37    1
39    23    38    1
@<TRIPOS>SUBSTRUCTURE
1   LIG    1    
 
########## Number      : 957
########## Name        : ZINC00027695
########## Description : AM1BCC_CHARGES =  -0.0000 ORIGINAL_CHARGES =  -0.0000

@<TRIPOS>MOLECULE
ZINC00027695
46    49    1     0     0    
SMALL
USER_CHARGES
****
****
@<TRIPOS>ATOM
1     C1      -0.9647    1.7011   -0.1352 C.3     1  LIG  -0.0937   0.0000 
2     C2      -1.9408    0.7170    0.5414 C.3     1  LIG  -0.0412   0.0000 
3     C3      -1.2277   -0.5714    0.9792 C.3     1  LIG  -0.0582   0.1382 
4     C4      -0.6997   -1.4031   -0.1837 C.2     1  LIG   0.2063  -0.0382 
5     C5      -1.3247   -1.3846   -1.3850 C.2     1  LIG  -0.3021  -0.1238 
6     C6      -0.8609   -2.1172   -2.6404 C.3     1  LIG   0.3051   0.6508 
7     N1       0.5910   -2.0883   -2.7557 N.pl3   1  LIG  -0.7051  -0.8691 
8     C7       1.3979   -2.8915   -1.9621 C.ar    1  LIG   0.0800   0.1000 
9     C8       2.3619   -3.6978   -2.6021 C.ar    1  LIG  -0.1491  -0.1500 
10    C9       3.1932   -4.5544   -1.8827 C.ar    1  LIG  -0.1344  -0.1500 
11    C10      3.0763   -4.6204   -0.5033 C.ar    1  LIG  -0.1223  -0.1500 
12    C11      2.1340   -3.8237    0.1455 C.ar    1  LIG  -0.1650  -0.1500 
13    C12      1.2867   -2.9468   -0.5666 C.ar    1  LIG   0.1438   0.1000 
14    N2       0.3988   -2.1568    0.1837 N.pl3   1  LIG  -0.6266  -0.6000 
15    C13     -1.3998   -1.5453   -3.9588 C.ar    1  LIG  -0.0939  -0.1435 
16    C14     -1.1724   -0.2050   -4.3209 C.ar    1  LIG  -0.1137  -0.1500 
17    C15     -1.6501    0.2942   -5.5334 C.ar    1  LIG  -0.1372  -0.1500 
18    C16     -2.3521   -0.5382   -6.4025 C.ar    1  LIG  -0.1240  -0.1500 
19    C17     -2.5746   -1.8713   -6.0627 C.ar    1  LIG  -0.1321  -0.1500 
20    C18     -2.0986   -2.3746   -4.8506 C.ar    1  LIG  -0.0991  -0.1500 
21    C19     -2.6896   -0.7377   -1.4185 C.2     1  LIG   0.5953   0.4946 
22    O1      -3.5410   -1.1101   -2.2289 O.2     1  LIG  -0.5460  -0.5700 
23    C20     -3.0677    0.3293   -0.4129 C.3     1  LIG  -0.1759   0.0610 
24    C21     -2.5349    1.4143    1.7792 C.3     1  LIG  -0.0908   0.0000 
25    H1       0.9659   -1.8894   -3.6789 H       1  LIG   0.3877   0.4000 
26    H2       0.5814   -2.1730    1.1830 H       1  LIG   0.4333   0.4000 
27    H3      -0.1354    1.9528    0.5356 H       1  LIG   0.0345   0.0000 
28    H4      -0.5326    1.2995   -1.0568 H       1  LIG   0.0578   0.0000 
29    H5      -1.4723    2.6365   -0.3979 H       1  LIG   0.0374   0.0000 
30    H6      -0.3966   -0.2912    1.6418 H       1  LIG   0.0537   0.0000 
31    H7      -1.8989   -1.2041    1.5762 H       1  LIG   0.0646   0.0000 
32    H8      -1.2423   -3.1502   -2.5622 H       1  LIG   0.0503   0.0000 
33    H9       2.4620   -3.6670   -3.6856 H       1  LIG   0.1340   0.1500 
34    H10      3.9241   -5.1677   -2.4009 H       1  LIG   0.1345   0.1500 
35    H11      3.7163   -5.2845    0.0697 H       1  LIG   0.1335   0.1500 
36    H12      2.0652   -3.8859    1.2301 H       1  LIG   0.1298   0.1500 
37    H13     -0.6203    0.4577   -3.6588 H       1  LIG   0.1404   0.1500 
38    H14     -1.4725    1.3320   -5.8002 H       1  LIG   0.1291   0.1500 
39    H15     -2.7237   -0.1490   -7.3460 H       1  LIG   0.1289   0.1500 
40    H16     -3.1191   -2.5206   -6.7423 H       1  LIG   0.1310   0.1500 
41    H17     -2.2810   -3.4181   -4.6062 H       1  LIG   0.1354   0.1500 
42    H18     -3.9146   -0.0781    0.1550 H       1  LIG   0.0707   0.0000 
43    H19     -3.4273    1.2064   -0.9639 H       1  LIG   0.0776   0.0000 
44    H20     -3.2289    0.7559    2.3139 H       1  LIG   0.0361   0.0000 
45    H21     -1.7481    1.7074    2.4835 H       1  LIG   0.0367   0.0000 
46    H22     -3.0860    2.3184    1.4967 H       1  LIG   0.0429   0.0000 
@<TRIPOS>BOND
1     1     2     1
2     1     27    1
3     1     28    1
4     1     29    1
5     2     23    1
6     2     3     1
7     2     24    1
8     3     4     1
9     3     30    1
10    3     31    1
11    4     14    1
12    4     5     2
13    5     6     1
14    5     21    1
15    6     7     1
16    6     15    1
17    6     32    1
18    7     8     1
19    7     25    1
20    8     13    ar
21    8     9     ar
22    9     10    ar
23    9     33    1
24    10    11    ar
25    10    34    1
26    11    12    ar
27    11    35    1
28    12    13    ar
29    12    36    1
30    13    14    1
31    14    26    1
32    15    20    ar
33    15    16    ar
34    16    17    ar
35    16    37    1
36    17    18    ar
37    17    38    1
38    18    19    ar
39    18    39    1
40    19    20    ar
41    19    40    1
42    20    41    1
43    21    22    2
44    21    23    1
45    23    42    1
46    23    43    1
47    24    44    1
48    24    45    1
49    24    46    1
@<TRIPOS>SUBSTRUCTURE
1   LIG    1    
 
########## Number      : 958
########## Name        : ZINC00027759
########## Description : AM1BCC_CHARGES =  -0.0000 ORIGINAL_CHARGES =  -0.0000

@<TRIPOS>MOLECULE
ZINC00027759
35    36    1     0     0    
SMALL
USER_CHARGES
****
****
@<TRIPOS>ATOM
1     C1       4.8258   -7.4988    1.2479 C.3     1  LIG   0.0331   0.3001 
2     C2       4.9549   -8.9871    0.9530 C.3     1  LIG   0.1146   0.2800 
3     O1       5.9068   -9.1977   -0.0932 O.3     1  LIG  -0.4039  -0.5600 
4     C3       5.4806   -8.5649   -1.3013 C.3     1  LIG   0.1174   0.2800 
5     C4       5.3426   -7.0559   -1.1090 C.3     1  LIG   0.0429   0.3001 
6     N1       4.4606   -6.7540    0.0296 N.pl3   1  LIG  -0.3864  -0.6602 
7     C5       3.4149   -5.8205   -0.0228 C.2     1  LIG   0.4141   0.3790 
8     S1       2.1337   -5.7646    1.0815 S.2     1  LIG  -0.4912  -0.3800 
9     C6       3.4360   -4.8359   -1.2043 C.3     1  LIG  -0.1949   0.1220 
10    C7       2.8769   -3.4280   -0.9613 C.2     1  LIG   0.4423   0.3790 
11    S2       1.4227   -3.0364   -1.7369 S.2     1  LIG  -0.4875  -0.3800 
12    N2       3.6163   -2.5660   -0.1407 N.pl3   1  LIG  -0.3687  -0.6602 
13    C8       4.9553   -2.8745    0.3887 C.3     1  LIG   0.0431   0.3001 
14    C9       5.0312   -2.5564    1.8782 C.3     1  LIG   0.0995   0.2800 
15    O2       4.6703   -1.1937    2.1165 O.3     1  LIG  -0.4104  -0.5600 
16    C10      3.3296   -0.9400    1.6897 C.3     1  LIG   0.1057   0.2800 
17    C11      3.1876   -1.1951    0.1924 C.3     1  LIG   0.0287   0.3001 
18    H1       5.7972   -7.0986    1.5639 H       1  LIG   0.0588   0.0000 
19    H2       4.1262   -7.3352    2.0690 H       1  LIG   0.1096   0.0000 
20    H3       5.3123   -9.5166    1.8415 H       1  LIG   0.0840   0.0000 
21    H4       3.9922   -9.4248    0.6635 H       1  LIG   0.0475   0.0000 
22    H5       6.2273   -8.7764   -2.0731 H       1  LIG   0.0807   0.0000 
23    H6       4.5318   -9.0102   -1.6242 H       1  LIG   0.0455   0.0000 
24    H7       6.3164   -6.6091   -0.8784 H       1  LIG   0.0507   0.0000 
25    H8       4.9703   -6.6262   -2.0406 H       1  LIG   0.0644   0.0000 
26    H9       4.4591   -4.6922   -1.5680 H       1  LIG   0.0720   0.0000 
27    H10      2.8978   -5.3284   -2.0261 H       1  LIG   0.1176   0.0000 
28    H11      5.2519   -3.9087    0.2233 H       1  LIG   0.0561   0.0000 
29    H12      5.6561   -2.2384   -0.1654 H       1  LIG   0.0628   0.0000 
30    H13      4.3741   -3.2118    2.4617 H       1  LIG   0.0685   0.0000 
31    H14      6.0541   -2.6995    2.2400 H       1  LIG   0.0739   0.0000 
32    H15      2.6415   -1.5683    2.2679 H       1  LIG   0.0565   0.0000 
33    H16      3.0988    0.1058    1.9152 H       1  LIG   0.0771   0.0000 
34    H17      3.8451   -0.5205   -0.3691 H       1  LIG   0.0625   0.0000 
35    H18      2.1594   -0.9918   -0.1105 H       1  LIG   0.1134   0.0000 
@<TRIPOS>BOND
1     1     6     1
2     1     2     1
3     1     18    1
4     1     19    1
5     2     3     1
6     2     20    1
7     2     21    1
8     3     4     1
9     4     5     1
10    4     22    1
11    4     23    1
12    5     6     1
13    5     24    1
14    5     25    1
15    6     7     1
16    7     8     2
17    7     9     1
18    9     10    1
19    9     26    1
20    9     27    1
21    10    11    2
22    10    12    1
23    12    17    1
24    12    13    1
25    13    14    1
26    13    28    1
27    13    29    1
28    14    15    1
29    14    30    1
30    14    31    1
31    15    16    1
32    16    17    1
33    16    32    1
34    16    33    1
35    17    34    1
36    17    35    1
@<TRIPOS>SUBSTRUCTURE
1   LIG    1    
 
########## Number      : 959
########## Name        : ZINC00027796
########## Description : AM1BCC_CHARGES =   0.9997 ORIGINAL_CHARGES =   1.0000

@<TRIPOS>MOLECULE
ZINC00027796
22    22    1     0     0    
SMALL
USER_CHARGES
****
****
@<TRIPOS>ATOM
1     C1       3.5151   -7.3742    1.2363 C.ar    1  LIG  -0.0760  -0.1500 
2     C2       3.3627   -8.4359    2.1301 C.ar    1  LIG  -0.1224  -0.1500 
3     C3       2.9644   -9.6851    1.6574 C.ar    1  LIG   0.0571   0.1770 
4     C4       2.7161   -9.8807    0.3000 C.ar    1  LIG  -0.1246  -0.1500 
5     C5       2.8693   -8.8174   -0.5918 C.ar    1  LIG  -0.0873  -0.1500 
6     C6       3.2749   -7.5553   -0.1336 C.ar    1  LIG  -0.1531  -0.1435 
7     C7       3.4226   -6.4057   -1.0936 C.3     1  LIG   0.0405   0.3735 
8     S1       1.8707   -5.4759   -1.2677 S.3     1  LIG  -0.0724  -0.3610 
9     C8       2.3331   -4.3366   -2.4913 C.cat   1  LIG   0.3981   0.8398 
10    N1       1.7005   -4.3730   -3.6518 N.pl3   1  LIG  -0.4711  -0.7544 
11    N2       3.2876   -3.4577   -2.2341 N.pl3   1  LIG  -0.4781  -0.7544 
12    Cl1      2.7751  -10.9953    2.7586 Cl      1  LIG  -0.0336  -0.1770 
13    H1       1.9292   -3.7259   -4.3967 H       1  LIG   0.3169   0.4500 
14    H2       0.9695   -5.0584   -3.8035 H       1  LIG   0.3360   0.4500 
15    H3       3.5747   -2.7777   -2.9280 H       1  LIG   0.3167   0.4500 
16    H4       3.7372   -3.4478   -1.3263 H       1  LIG   0.3224   0.4500 
17    H5       3.8223   -6.4029    1.6169 H       1  LIG   0.1467   0.1500 
18    H6       3.5553   -8.2752    3.1874 H       1  LIG   0.1704   0.1500 
19    H7       2.4027  -10.8511   -0.0755 H       1  LIG   0.1698   0.1500 
20    H8       2.6689   -8.9805   -1.6481 H       1  LIG   0.1482   0.1500 
21    H9       4.2158   -5.7334   -0.7477 H       1  LIG   0.0922   0.0000 
22    H10      3.7319   -6.7782   -2.0769 H       1  LIG   0.1033   0.0000 
@<TRIPOS>BOND
1     1     6     ar
2     1     2     ar
3     1     17    1
4     2     3     ar
5     2     18    1
6     3     4     ar
7     3     12    1
8     4     5     ar
9     4     19    1
10    5     6     ar
11    5     20    1
12    6     7     1
13    7     8     1
14    7     21    1
15    7     22    1
16    8     9     1
17    9     10    2
18    9     11    1
19    10    13    1
20    10    14    1
21    11    15    1
22    11    16    1
@<TRIPOS>SUBSTRUCTURE
1   LIG    1    
 
########## Number      : 960
########## Name        : ZINC00027797
########## Description : AM1BCC_CHARGES =  -0.0000 ORIGINAL_CHARGES =  -0.0000

@<TRIPOS>MOLECULE
ZINC00027797
15    15    1     0     0    
SMALL
USER_CHARGES
****
****
@<TRIPOS>ATOM
1     C1       3.2686   -2.8049    6.8649 C.ar    1  LIG   0.0352  -0.1500 
2     C2       2.3181   -2.7526    5.8514 C.ar    1  LIG  -0.2146   0.0730 
3     C3       2.6555   -2.0885    4.6862 C.ar    1  LIG   0.5114   0.1600 
4     N1       3.8507   -1.4877    4.4805 N.ar    1  LIG  -0.7398  -0.6200 
5     C4       4.7705   -1.5253    5.4772 C.ar    1  LIG   0.7350   0.4100 
6     C5       4.5127   -2.1921    6.6807 C.ar    1  LIG  -0.2320   0.0730 
7     C6       5.4851   -2.2667    7.7298 C.1     1  LIG   0.2369   0.4841 
8     N2       6.2715   -2.3248    8.5812 N.1     1  LIG  -0.3636  -0.5571 
9     N3       6.0064   -0.9359    5.2295 N.pl3   1  LIG  -0.9566  -0.9000 
10    C7       1.0385   -3.3672    6.0046 C.1     1  LIG   0.2429   0.4841 
11    N4      -0.0015   -3.8666    6.1292 N.1     1  LIG  -0.3599  -0.5571 
12    H1       6.5409   -0.5552    5.9997 H       1  LIG   0.4499   0.4000 
13    H2       6.1214   -0.4964    4.3244 H       1  LIG   0.4542   0.4000 
14    H3       3.0466   -3.3237    7.7961 H       1  LIG   0.1610   0.1500 
15    H4       1.9642   -2.0126    3.8516 H       1  LIG   0.0400   0.1500 
@<TRIPOS>BOND
1     1     6     ar
2     1     2     ar
3     1     14    1
4     2     3     ar
5     2     10    1
6     3     4     ar
7     3     15    1
8     4     5     ar
9     5     6     ar
10    5     9     1
11    6     7     1
12    7     8     3
13    9     12    1
14    9     13    1
15    10    11    3
@<TRIPOS>SUBSTRUCTURE
1   LIG    1    
 
########## Number      : 961
########## Name        : ZINC00027829
########## Description : AM1BCC_CHARGES =  -0.0000 ORIGINAL_CHARGES =   0.0000

@<TRIPOS>MOLECULE
ZINC00027829
34    35    1     0     0    
SMALL
USER_CHARGES
****
****
@<TRIPOS>ATOM
1     C1       6.3565   -8.2734   -1.0109 C.ar    1  LIG  -0.1169  -0.1500 
2     C2       5.4659   -8.5443    0.0257 C.ar    1  LIG  -0.1239  -0.1500 
3     C3       5.8053   -8.2228    1.3408 C.ar    1  LIG  -0.1055  -0.1500 
4     C4       7.0413   -7.6249    1.6339 C.ar    1  LIG  -0.1357  -0.1435 
5     C5       7.9292   -7.3595    0.5812 C.ar    1  LIG  -0.1249  -0.1500 
6     C6       7.5873   -7.6821   -0.7335 C.ar    1  LIG  -0.1281  -0.1500 
7     C7       7.4134   -7.2634    3.0589 C.3     1  LIG   0.1252   0.4845 
8     C8       6.4535   -6.2332    3.6504 C.2     1  LIG   0.6458   0.5690 
9     O1       5.6871   -6.4985    4.5749 O.2     1  LIG  -0.5391  -0.5700 
10    N1       6.5823   -4.9872    3.0577 N.am    1  LIG  -0.3267  -0.3680 
11    N2       5.8039   -3.9693    3.4958 N.2     1  LIG  -0.4162  -0.5120 
12    C9       5.9847   -2.8494    2.8710 C.2     1  LIG   0.3607   0.3038 
13    C10      5.2141   -1.6338    3.2127 C.ar    1  LIG  -0.1994   0.0862 
14    C11      4.1314   -1.7408    4.0972 C.ar    1  LIG  -0.0611  -0.1500 
15    C12      3.3572   -0.6195    4.4025 C.ar    1  LIG  -0.1676  -0.1500 
16    C13      3.6547    0.6130    3.8261 C.ar    1  LIG  -0.0888  -0.1500 
17    C14      4.7324    0.7284    2.9496 C.ar    1  LIG  -0.1610  -0.1500 
18    C15      5.5172   -0.3882    2.6499 C.ar    1  LIG   0.1364   0.0825 
19    O2       6.5669   -0.1662    1.8023 O.3     1  LIG  -0.5000  -0.5325 
20    O3       7.3737   -8.4426    3.8389 O.3     1  LIG  -0.5679  -0.6800 
21    H1       7.2294   -4.8121    2.2953 H       1  LIG   0.2996   0.3700 
22    H2       7.2293   -0.8670    1.9046 H       1  LIG   0.4188   0.4500 
23    H3       7.6211   -8.2009    4.7479 H       1  LIG   0.4231   0.4000 
24    H4       6.0921   -8.5243   -2.0341 H       1  LIG   0.1375   0.1500 
25    H5       4.5067   -9.0067   -0.1890 H       1  LIG   0.1397   0.1500 
26    H6       5.0990   -8.4428    2.1381 H       1  LIG   0.1388   0.1500 
27    H7       8.8952   -6.8998    0.7754 H       1  LIG   0.1322   0.1500 
28    H8       8.2826   -7.4725   -1.5415 H       1  LIG   0.1373   0.1500 
29    H9       8.4309   -6.8406    3.0652 H       1  LIG   0.1031   0.0000 
30    H10      6.7199   -2.7737    2.0518 H       1  LIG  -0.0154   0.0600 
31    H11      3.8658   -2.6922    4.5516 H       1  LIG   0.1546   0.1500 
32    H12      2.5177   -0.7106    5.0861 H       1  LIG   0.1381   0.1500 
33    H13      3.0495    1.4838    4.0611 H       1  LIG   0.1358   0.1500 
34    H14      4.9632    1.6949    2.5089 H       1  LIG   0.1515   0.1500 
@<TRIPOS>BOND
1     1     6     ar
2     1     2     ar
3     1     24    1
4     2     3     ar
5     2     25    1
6     3     4     ar
7     3     26    1
8     4     5     ar
9     4     7     1
10    5     6     ar
11    5     27    1
12    6     28    1
13    7     8     1
14    7     20    1
15    7     29    1
16    8     9     2
17    8     10    am
18    10    11    1
19    10    21    1
20    11    12    2
21    12    13    1
22    12    30    1
23    13    18    ar
24    13    14    ar
25    14    15    ar
26    14    31    1
27    15    16    ar
28    15    32    1
29    16    17    ar
30    16    33    1
31    17    18    ar
32    17    34    1
33    18    19    1
34    19    22    1
35    20    23    1
@<TRIPOS>SUBSTRUCTURE
1   LIG    1    
 
########## Number      : 962
########## Name        : ZINC00027831
########## Description : AM1BCC_CHARGES =  -0.0003 ORIGINAL_CHARGES =   0.0000

@<TRIPOS>MOLECULE
ZINC00027831
34    35    1     0     0    
SMALL
USER_CHARGES
****
****
@<TRIPOS>ATOM
1     C1       4.7847   -9.2524    0.6604 C.ar    1  LIG  -0.1150  -0.1500 
2     C2       5.3871   -9.4189    1.9053 C.ar    1  LIG  -0.1307  -0.1500 
3     C3       6.4526   -8.5994    2.2829 C.ar    1  LIG  -0.1103  -0.1500 
4     C4       6.9252   -7.5985    1.4207 C.ar    1  LIG  -0.1423  -0.1435 
5     C5       6.3145   -7.4481    0.1654 C.ar    1  LIG  -0.1137  -0.1500 
6     C6       5.2490   -8.2687   -0.2098 C.ar    1  LIG  -0.1250  -0.1500 
7     C7       8.0910   -6.7237    1.8453 C.3     1  LIG   0.1273   0.4845 
8     C8       7.8133   -5.2388    1.6304 C.2     1  LIG   0.6495   0.5690 
9     O1       8.3277   -4.5966    0.7162 O.2     1  LIG  -0.5436  -0.5700 
10    N1       6.9432   -4.7219    2.5768 N.am    1  LIG  -0.3288  -0.3680 
11    N2       6.6063   -3.4120    2.5109 N.2     1  LIG  -0.4152  -0.5120 
12    C9       5.7800   -3.0244    3.4297 C.2     1  LIG   0.3607   0.3038 
13    C10      5.2980   -1.6279    3.5048 C.ar    1  LIG  -0.1903   0.0862 
14    C11      5.5870   -0.7505    2.4499 C.ar    1  LIG  -0.0643  -0.1500 
15    C12      5.1060    0.5602    2.4714 C.ar    1  LIG  -0.1646  -0.1500 
16    C13      4.3317    1.0028    3.5411 C.ar    1  LIG  -0.0916  -0.1500 
17    C14      4.0440    0.1381    4.5958 C.ar    1  LIG  -0.1580  -0.1500 
18    C15      4.5329   -1.1708    4.5846 C.ar    1  LIG   0.1293   0.0825 
19    O2       4.2198   -1.9314    5.6770 O.3     1  LIG  -0.5032  -0.5325 
20    O3       9.2355   -7.0936    1.0997 O.3     1  LIG  -0.5672  -0.6800 
21    H1       6.5373   -5.2934    3.3112 H       1  LIG   0.2974   0.3700 
22    H2       4.8432   -2.6699    5.7560 H       1  LIG   0.4175   0.4500 
23    H3       9.0575   -6.9162    0.1600 H       1  LIG   0.4239   0.4000 
24    H4       3.9564   -9.8909    0.3671 H       1  LIG   0.1372   0.1500 
25    H5       5.0289  -10.1890    2.5827 H       1  LIG   0.1370   0.1500 
26    H6       6.9117   -8.7506    3.2570 H       1  LIG   0.1342   0.1500 
27    H7       6.6629   -6.6907   -0.5327 H       1  LIG   0.1447   0.1500 
28    H8       4.7830   -8.1407   -1.1827 H       1  LIG   0.1397   0.1500 
29    H9       8.2761   -6.8848    2.9197 H       1  LIG   0.0993   0.0000 
30    H10      5.4021   -3.7356    4.1838 H       1  LIG  -0.0168   0.0600 
31    H11      6.1767   -1.0713    1.5946 H       1  LIG   0.1570   0.1500 
32    H12      5.3312    1.2335    1.6490 H       1  LIG   0.1381   0.1500 
33    H13      3.9546    2.0214    3.5550 H       1  LIG   0.1363   0.1500 
34    H14      3.4451    0.4924    5.4309 H       1  LIG   0.1512   0.1500 
@<TRIPOS>BOND
1     1     6     ar
2     1     2     ar
3     1     24    1
4     2     3     ar
5     2     25    1
6     3     4     ar
7     3     26    1
8     4     5     ar
9     4     7     1
10    5     6     ar
11    5     27    1
12    6     28    1
13    7     8     1
14    7     20    1
15    7     29    1
16    8     9     2
17    8     10    am
18    10    11    1
19    10    21    1
20    11    12    2
21    12    13    1
22    12    30    1
23    13    18    ar
24    13    14    ar
25    14    15    ar
26    14    31    1
27    15    16    ar
28    15    32    1
29    16    17    ar
30    16    33    1
31    17    18    ar
32    17    34    1
33    18    19    1
34    19    22    1
35    20    23    1
@<TRIPOS>SUBSTRUCTURE
1   LIG    1    
 
########## Number      : 963
########## Name        : ZINC00027998
########## Description : AM1BCC_CHARGES =   0.0001 ORIGINAL_CHARGES =   0.0000

@<TRIPOS>MOLECULE
ZINC00027998
39    41    1     0     0    
SMALL
USER_CHARGES
****
****
@<TRIPOS>ATOM
1     C1      -3.4083    6.6662   -2.5464 C.3     1  LIG   0.2157   0.3691 
2     N1      -3.9144    6.5893   -1.1819 N.pl3   1  LIG  -0.7033  -0.8382 
3     C2      -4.9087    7.5695   -0.7644 C.3     1  LIG   0.2160   0.3691 
4     C3      -3.4631    5.6060   -0.3035 C.ar    1  LIG   0.2106   0.1000 
5     C4      -2.5022    4.6490   -0.6797 C.ar    1  LIG  -0.2112  -0.1500 
6     C5      -2.0456    3.6554    0.2004 C.ar    1  LIG  -0.0657  -0.1500 
7     C6      -2.5422    3.5702    1.5020 C.ar    1  LIG  -0.1265   0.0284 
8     C7      -3.4841    4.5189    1.9047 C.ar    1  LIG  -0.0681  -0.1500 
9     C8      -3.9355    5.5084    1.0183 C.ar    1  LIG  -0.2097  -0.1500 
10    C9      -2.0798    2.5690    2.4761 C.2     1  LIG  -0.0641  -0.1784 
11    C10     -1.6230    1.3477    2.1561 C.2     1  LIG  -0.1479  -0.1784 
12    C11     -1.1697    0.3786    3.1701 C.ar    1  LIG   0.0050   0.0284 
13    C12     -2.0573   -0.0039    4.1783 C.ar    1  LIG  -0.2519  -0.1500 
14    C13     -1.6301   -0.9325    5.1044 C.ar    1  LIG   0.4131   0.1600 
15    N2      -0.4067   -1.4998    5.0944 N.ar    1  LIG  -0.6612  -0.6200 
16    C14      0.4533   -1.1443    4.1251 C.ar    1  LIG   0.3936   0.3100 
17    C15      0.1254   -0.2011    3.1233 C.ar    1  LIG  -0.1374   0.0000 
18    C16      1.1002    0.1157    2.1458 C.ar    1  LIG  -0.1091  -0.1500 
19    C17      2.3572   -0.4853    2.1545 C.ar    1  LIG  -0.1305  -0.1500 
20    C18      2.6649   -1.4110    3.1393 C.ar    1  LIG  -0.1248  -0.1500 
21    C19      1.7155   -1.7295    4.1107 C.ar    1  LIG  -0.1662  -0.1500 
22    H1      -2.3267    6.8408   -2.5522 H       1  LIG   0.0318   0.0000 
23    H2      -3.6318    5.7464   -3.0981 H       1  LIG   0.0335   0.0000 
24    H3      -3.8650    7.4899   -3.1058 H       1  LIG   0.0452   0.0000 
25    H4      -4.5377    8.1689    0.0743 H       1  LIG   0.0322   0.0000 
26    H5      -5.1550    8.2702   -1.5696 H       1  LIG   0.0452   0.0000 
27    H6      -5.8440    7.0778   -0.4751 H       1  LIG   0.0332   0.0000 
28    H7      -2.0724    4.6510   -1.6787 H       1  LIG   0.1333   0.1500 
29    H8      -1.2886    2.9625   -0.1589 H       1  LIG   0.1290   0.1500 
30    H9      -3.8903    4.5030    2.9142 H       1  LIG   0.1291   0.1500 
31    H10     -4.6752    6.2074    1.4016 H       1  LIG   0.1335   0.1500 
32    H11     -2.1375    2.8710    3.5200 H       1  LIG   0.1250   0.1500 
33    H12     -1.5603    1.0111    1.1254 H       1  LIG   0.1350   0.1500 
34    H13     -3.0621    0.4014    4.2425 H       1  LIG   0.1450   0.1500 
35    H14     -2.2838   -1.2605    5.9061 H       1  LIG   0.0204   0.1500 
36    H15      0.8910    0.8421    1.3636 H       1  LIG   0.1356   0.1500 
37    H16      3.0904   -0.2286    1.3958 H       1  LIG   0.1331   0.1500 
38    H17      3.6413   -1.8862    3.1572 H       1  LIG   0.1342   0.1500 
39    H18      1.9782   -2.4576    4.8763 H       1  LIG   0.1494   0.1500 
@<TRIPOS>BOND
1     1     2     1
2     1     22    1
3     1     23    1
4     1     24    1
5     2     3     1
6     2     4     1
7     3     25    1
8     3     26    1
9     3     27    1
10    4     9     ar
11    4     5     ar
12    5     6     ar
13    5     28    1
14    6     7     ar
15    6     29    1
16    7     8     ar
17    7     10    1
18    8     9     ar
19    8     30    1
20    9     31    1
21    10    11    2
22    10    32    1
23    11    12    1
24    11    33    1
25    12    17    ar
26    12    13    ar
27    13    14    ar
28    13    34    1
29    14    15    ar
30    14    35    1
31    15    16    ar
32    16    21    ar
33    16    17    ar
34    17    18    ar
35    18    19    ar
36    18    36    1
37    19    20    ar
38    19    37    1
39    20    21    ar
40    20    38    1
41    21    39    1
@<TRIPOS>SUBSTRUCTURE
1   LIG    1    
 
########## Number      : 964
########## Name        : ZINC00028056
########## Description : AM1BCC_CHARGES =   0.0002 ORIGINAL_CHARGES =   0.0000

@<TRIPOS>MOLECULE
ZINC00028056
23    23    1     0     0    
SMALL
USER_CHARGES
****
****
@<TRIPOS>ATOM
1     C1       3.8177   -6.7797    2.4824 C.ar    1  LIG  -0.1335  -0.1500 
2     C2       3.7741   -6.0739    3.6860 C.ar    1  LIG  -0.0732  -0.1500 
3     C3       3.7520   -4.6754    3.6594 C.ar    1  LIG  -0.1711   0.1330 
4     C4       3.7728   -3.9757    2.4483 C.ar    1  LIG  -0.0704  -0.1500 
5     C5       3.8160   -4.6875    1.2480 C.ar    1  LIG  -0.1057  -0.1500 
6     C6       3.8384   -6.0863    1.2681 C.ar    1  LIG  -0.0765   0.0862 
7     C7       3.8841   -6.8662    0.0179 C.2     1  LIG   0.3496   0.3038 
8     N1       3.9053   -6.2946   -1.1422 N.2     1  LIG  -0.3908  -0.5120 
9     N2       3.9470   -7.1558   -2.1894 N.pl3   1  LIG  -0.2973  -0.3680 
10    C8       3.9738   -6.7011   -3.4942 C.2     1  LIG   0.5704   0.5000 
11    S1       3.9607   -5.1044   -3.9964 S.2     1  LIG  -0.4640  -0.3800 
12    N3       4.0149   -7.7186   -4.4185 N.pl3   1  LIG  -0.6343  -0.8000 
13    N4       3.7065   -3.9346    4.9154 N.pl3   1  LIG   0.3129   0.9070 
14    O1       3.3061   -4.5339    5.9227 O.2     1  LIG  -0.2096  -0.5200 
15    O2       4.0710   -2.7510    4.8990 O.3     1  LIG  -0.2048  -0.5200 
16    H1       3.9581   -8.1504   -1.9898 H       1  LIG   0.2917   0.3700 
17    H2       4.0376   -7.5147   -5.4118 H       1  LIG   0.3441   0.3700 
18    H3       4.0238   -8.6945   -4.1459 H       1  LIG   0.2998   0.3700 
19    H4       3.8360   -7.8664    2.5068 H       1  LIG   0.1445   0.1500 
20    H5       3.7639   -6.6305    4.6194 H       1  LIG   0.1718   0.1500 
21    H6       3.7505   -2.8898    2.4120 H       1  LIG   0.1750   0.1500 
22    H7       3.8306   -4.1376    0.3105 H       1  LIG   0.1768   0.1500 
23    H8       3.8995   -7.9671    0.1232 H       1  LIG  -0.0052   0.0600 
@<TRIPOS>BOND
1     1     6     ar
2     1     2     ar
3     1     19    1
4     2     3     ar
5     2     20    1
6     3     4     ar
7     3     13    1
8     4     5     ar
9     4     21    1
10    5     6     ar
11    5     22    1
12    6     7     1
13    7     8     2
14    7     23    1
15    8     9     1
16    9     10    1
17    9     16    1
18    10    11    2
19    10    12    1
20    12    17    1
21    12    18    1
22    13    14    2
23    13    15    1
@<TRIPOS>SUBSTRUCTURE
1   LIG    1    
 
########## Number      : 965
########## Name        : ZINC00028058
########## Description : AM1BCC_CHARGES =   0.0000 ORIGINAL_CHARGES =   0.0000

@<TRIPOS>MOLECULE
ZINC00028058
21    21    1     0     0    
SMALL
USER_CHARGES
****
****
@<TRIPOS>ATOM
1     C1       4.7581   -6.7920   -1.4386 C.ar    1  LIG  -0.1319  -0.1500 
2     C2       3.7892   -5.7882   -1.3995 C.ar    1  LIG  -0.1061  -0.1500 
3     C3       3.1721   -5.4325   -0.1893 C.ar    1  LIG  -0.1129   0.0862 
4     C4       3.5402   -6.0996    0.9897 C.ar    1  LIG   0.0518   0.1770 
5     C5       4.5140   -7.1073    0.9453 C.ar    1  LIG  -0.1326  -0.1500 
6     C6       5.1164   -7.4476   -0.2652 C.ar    1  LIG   0.0330   0.1770 
7     Cl1      6.3112   -8.6866   -0.3085 Cl      1  LIG  -0.0816  -0.1770 
8     Cl2      2.8610   -5.7609    2.5421 Cl      1  LIG  -0.0282  -0.1770 
9     C7       2.1629   -4.3522   -0.2932 C.2     1  LIG   0.3568   0.3038 
10    N1       1.4943   -3.8941    0.7139 N.2     1  LIG  -0.3790  -0.5120 
11    N2       0.6189   -2.9047    0.4053 N.pl3   1  LIG  -0.3083  -0.3680 
12    C8      -0.1694   -2.3122    1.3736 C.2     1  LIG   0.5877   0.5000 
13    S1      -0.1929   -2.6784    3.0066 S.2     1  LIG  -0.4809  -0.3800 
14    N3      -0.9924   -1.3313    0.8716 N.pl3   1  LIG  -0.6470  -0.8000 
15    H1       0.5557   -2.6071   -0.5624 H       1  LIG   0.2916   0.3700 
16    H2      -1.6207   -0.8205    1.4824 H       1  LIG   0.3463   0.3700 
17    H3      -1.0017   -1.0863   -0.1116 H       1  LIG   0.3002   0.3700 
18    H4       5.2220   -7.0501   -2.3869 H       1  LIG   0.1516   0.1500 
19    H5       3.5255   -5.2897   -2.3300 H       1  LIG   0.1373   0.1500 
20    H6       4.8031   -7.6277    1.8563 H       1  LIG   0.1641   0.1500 
21    H7       2.0013   -3.9405   -1.3076 H       1  LIG  -0.0119   0.0600 
@<TRIPOS>BOND
1     1     6     ar
2     1     2     ar
3     1     18    1
4     2     3     ar
5     2     19    1
6     3     4     ar
7     3     9     1
8     4     5     ar
9     4     8     1
10    5     6     ar
11    5     20    1
12    6     7     1
13    9     10    2
14    9     21    1
15    10    11    1
16    11    12    1
17    11    15    1
18    12    13    2
19    12    14    1
20    14    16    1
21    14    17    1
@<TRIPOS>SUBSTRUCTURE
1   LIG    1    
 
########## Number      : 966
########## Name        : ZINC00028061
########## Description : AM1BCC_CHARGES =  -0.0002 ORIGINAL_CHARGES =   0.0000

@<TRIPOS>MOLECULE
ZINC00028061
29    29    1     0     0    
SMALL
USER_CHARGES
****
****
@<TRIPOS>ATOM
1     C1       2.4739    4.2724    6.5433 C.3     1  LIG   0.1094   0.2800 
2     O1       1.6311    5.4178    6.5636 O.3     1  LIG  -0.3027  -0.3625 
3     C2       1.7491    6.2687    7.6356 C.ar    1  LIG   0.1186   0.0825 
4     C3       2.6379    6.0835    8.7013 C.ar    1  LIG  -0.1898  -0.1500 
5     C4       2.6870    7.0040    9.7495 C.ar    1  LIG  -0.0811  -0.1500 
6     C5       1.8450    8.1153    9.7347 C.ar    1  LIG  -0.1319   0.0862 
7     C6       0.9520    8.3144    8.6777 C.ar    1  LIG  -0.1678  -0.1500 
8     C7       0.8994    7.3933    7.6239 C.ar    1  LIG   0.0951   0.0825 
9     O2       0.0601    7.4961    6.5409 O.3     1  LIG  -0.3034  -0.3625 
10    C8      -0.8130    8.6176    6.4927 C.3     1  LIG   0.1104   0.2800 
11    C9       1.8724    9.1061   10.8267 C.2     1  LIG   0.3775   0.3038 
12    N1       2.6722    8.9871   11.8364 N.2     1  LIG  -0.4068  -0.5120 
13    N2       2.5705    9.9836   12.7511 N.pl3   1  LIG  -0.3096  -0.3680 
14    C10      3.3573   10.0008   13.8871 C.2     1  LIG   0.5931   0.5000 
15    S1       4.5105    8.8679   14.3211 S.2     1  LIG  -0.4988  -0.3800 
16    N3       3.1135   11.0867   14.6949 N.pl3   1  LIG  -0.6492  -0.8000 
17    H1       1.8968   10.7225   12.5794 H       1  LIG   0.2919   0.3700 
18    H2       3.6274   11.2138   15.5600 H       1  LIG   0.3464   0.3700 
19    H3       2.4222   11.7892   14.4596 H       1  LIG   0.3003   0.3700 
20    H4       2.2515    3.7110    5.6307 H       1  LIG   0.0693   0.0000 
21    H5       3.5299    4.5596    6.5073 H       1  LIG   0.0344   0.0000 
22    H6       2.2686    3.6158    7.3952 H       1  LIG   0.0342   0.0000 
23    H7       3.3086    5.2311    8.7480 H       1  LIG   0.1448   0.1500 
24    H8       3.3863    6.8361   10.5644 H       1  LIG   0.1648   0.1500 
25    H9       0.3082    9.1884    8.6922 H       1  LIG   0.1363   0.1500 
26    H10     -1.4028    8.5416    5.5741 H       1  LIG   0.0695   0.0000 
27    H11     -1.5107    8.6115    7.3365 H       1  LIG   0.0300   0.0000 
28    H12     -0.2494    9.5553    6.4486 H       1  LIG   0.0300   0.0000 
29    H13      1.1728    9.9580   10.7384 H       1  LIG  -0.0151   0.0600 
@<TRIPOS>BOND
1     1     2     1
2     1     20    1
3     1     21    1
4     1     22    1
5     2     3     1
6     3     8     ar
7     3     4     ar
8     4     5     ar
9     4     23    1
10    5     6     ar
11    5     24    1
12    6     7     ar
13    6     11    1
14    7     8     ar
15    7     25    1
16    8     9     1
17    9     10    1
18    10    26    1
19    10    27    1
20    10    28    1
21    11    12    2
22    11    29    1
23    12    13    1
24    13    14    1
25    13    17    1
26    14    15    2
27    14    16    1
28    16    18    1
29    16    19    1
@<TRIPOS>SUBSTRUCTURE
1   LIG    1    
 
########## Number      : 967
########## Name        : ZINC00028066
########## Description : AM1BCC_CHARGES =   0.0001 ORIGINAL_CHARGES =   0.0000

@<TRIPOS>MOLECULE
ZINC00028066
21    21    1     0     0    
SMALL
USER_CHARGES
****
****
@<TRIPOS>ATOM
1     C1       7.9623   -0.5611    2.9274 C.ar    1  LIG  -0.1099  -0.1500 
2     C2       7.8211   -1.6334    2.0450 C.ar    1  LIG  -0.1313  -0.1500 
3     C3       6.9025   -1.5526    0.9978 C.ar    1  LIG   0.0272   0.1770 
4     C4       6.1231   -0.4082    0.8247 C.ar    1  LIG  -0.1307  -0.1500 
5     C5       6.2622    0.6656    1.7057 C.ar    1  LIG  -0.0812  -0.1500 
6     C6       7.1823    0.5859    2.7555 C.ar    1  LIG  -0.1264   0.0862 
7     C7       7.3562    1.7000    3.7049 C.2     1  LIG   0.3701   0.3038 
8     N1       6.6697    2.7920    3.6083 N.2     1  LIG  -0.4054  -0.5120 
9     N2       6.9516    3.7159    4.5607 N.pl3   1  LIG  -0.3033  -0.3680 
10    C8       6.3028    4.9357    4.5944 C.2     1  LIG   0.5831   0.5000 
11    S1       5.1224    5.4693    3.5345 S.2     1  LIG  -0.4864  -0.3800 
12    N3       6.7203    5.7394    5.6293 N.pl3   1  LIG  -0.6423  -0.8000 
13    Cl1      6.7294   -2.8763   -0.0900 Cl      1  LIG  -0.0907  -0.1770 
14    H1       7.6565    3.4876    5.2537 H       1  LIG   0.2912   0.3700 
15    H2       6.3196    6.6616    5.7624 H       1  LIG   0.3446   0.3700 
16    H3       7.4326    5.4448    6.2871 H       1  LIG   0.2994   0.3700 
17    H4       8.6807   -0.6347    3.7396 H       1  LIG   0.1339   0.1500 
18    H5       8.4304   -2.5226    2.1839 H       1  LIG   0.1483   0.1500 
19    H6       5.4062   -0.3403    0.0107 H       1  LIG   0.1524   0.1500 
20    H7       5.6488    1.5505    1.5590 H       1  LIG   0.1685   0.1500 
21    H8       8.1052    1.5539    4.5054 H       1  LIG  -0.0110   0.0600 
@<TRIPOS>BOND
1     1     6     ar
2     1     2     ar
3     1     17    1
4     2     3     ar
5     2     18    1
6     3     4     ar
7     3     13    1
8     4     5     ar
9     4     19    1
10    5     6     ar
11    5     20    1
12    6     7     1
13    7     8     2
14    7     21    1
15    8     9     1
16    9     10    1
17    9     14    1
18    10    11    2
19    10    12    1
20    12    15    1
21    12    16    1
@<TRIPOS>SUBSTRUCTURE
1   LIG    1    
 
########## Number      : 968
########## Name        : ZINC00028072
########## Description : AM1BCC_CHARGES =   0.0002 ORIGINAL_CHARGES =   0.0000

@<TRIPOS>MOLECULE
ZINC00028072
23    23    1     0     0    
SMALL
USER_CHARGES
****
****
@<TRIPOS>ATOM
1     C1       5.0892   -5.8073   -1.7220 C.ar    1  LIG  -0.1423  -0.1500 
2     C2       4.5328   -4.6804   -1.1133 C.ar    1  LIG  -0.0844  -0.1500 
3     C3       3.2497   -4.7490   -0.5606 C.ar    1  LIG  -0.1237   0.0862 
4     C4       2.5158   -5.9382   -0.6108 C.ar    1  LIG  -0.0351  -0.1500 
5     C5       3.0893   -7.0569   -1.2246 C.ar    1  LIG  -0.1789   0.1330 
6     C6       4.3712   -7.0020   -1.7819 C.ar    1  LIG  -0.0624  -0.1500 
7     N1       2.3374   -8.3047   -1.2854 N.pl3   1  LIG   0.3127   0.9070 
8     O1       1.4492   -8.4826   -0.4409 O.2     1  LIG  -0.1938  -0.5200 
9     O2       2.6339   -9.1110   -2.1776 O.3     1  LIG  -0.2126  -0.5200 
10    C7       2.6971   -3.5368    0.0711 C.2     1  LIG   0.3502   0.3038 
11    N2       1.5173   -3.5212    0.6008 N.2     1  LIG  -0.3860  -0.5120 
12    N3       1.1613   -2.3280    1.1390 N.pl3   1  LIG  -0.3092  -0.3680 
13    C8      -0.0691   -2.1494    1.7424 C.2     1  LIG   0.5806   0.5000 
14    S1      -1.2749   -3.2978    1.9119 S.2     1  LIG  -0.4641  -0.3800 
15    N4      -0.2507   -0.8760    2.2290 N.pl3   1  LIG  -0.6446  -0.8000 
16    H1       1.8260   -1.5633    1.0873 H       1  LIG   0.2946   0.3700 
17    H2      -1.1141   -0.6183    2.6946 H       1  LIG   0.3470   0.3700 
18    H3       0.4601   -0.1591    2.1418 H       1  LIG   0.3012   0.3700 
19    H4       6.0866   -5.7534   -2.1502 H       1  LIG   0.1494   0.1500 
20    H5       5.1097   -3.7598   -1.0780 H       1  LIG   0.1403   0.1500 
21    H6       1.5169   -5.9842   -0.1852 H       1  LIG   0.1974   0.1500 
22    H7       4.8287   -7.8663   -2.2559 H       1  LIG   0.1718   0.1500 
23    H8       3.3442   -2.6399    0.0686 H       1  LIG  -0.0079   0.0600 
@<TRIPOS>BOND
1     1     6     ar
2     1     2     ar
3     1     19    1
4     2     3     ar
5     2     20    1
6     3     4     ar
7     3     10    1
8     4     5     ar
9     4     21    1
10    5     6     ar
11    5     7     1
12    6     22    1
13    7     8     2
14    7     9     1
15    10    11    2
16    10    23    1
17    11    12    1
18    12    13    1
19    12    16    1
20    13    14    2
21    13    15    1
22    15    17    1
23    15    18    1
@<TRIPOS>SUBSTRUCTURE
1   LIG    1    
 
########## Number      : 969
########## Name        : ZINC00028093
########## Description : AM1BCC_CHARGES =   0.0001 ORIGINAL_CHARGES =   0.0000

@<TRIPOS>MOLECULE
ZINC00028093
29    29    1     0     0    
SMALL
USER_CHARGES
****
****
@<TRIPOS>ATOM
1     C1       3.8199   -9.1201   -2.0954 C.3     1  LIG   0.2147   0.3691 
2     N1       3.6373   -8.8409   -0.6766 N.pl3   1  LIG  -0.7022  -0.8382 
3     C2       3.9869   -9.8861    0.2769 C.3     1  LIG   0.2157   0.3691 
4     C3       3.1431   -7.6107   -0.2448 C.ar    1  LIG   0.2143   0.1000 
5     C4       2.7981   -6.5844   -1.1482 C.ar    1  LIG  -0.2165  -0.1500 
6     C5       2.3009   -5.3456   -0.7220 C.ar    1  LIG  -0.0411  -0.1500 
7     C6       2.1339   -5.0988    0.6368 C.ar    1  LIG  -0.1926   0.0862 
8     C7       2.4616   -6.0832    1.5628 C.ar    1  LIG  -0.0693  -0.1500 
9     C8       2.9578   -7.3171    1.1218 C.ar    1  LIG  -0.2153  -0.1500 
10    C9       1.6143   -3.8105    1.1276 C.2     1  LIG   0.3925   0.3038 
11    N2       1.2906   -2.8531    0.3203 N.2     1  LIG  -0.4202  -0.5120 
12    N3       0.8296   -1.7352    0.9352 N.pl3   1  LIG  -0.3083  -0.3680 
13    C10      0.4423   -0.6234    0.2114 C.2     1  LIG   0.5956   0.5000 
14    S1       0.4672   -0.4567   -1.4539 S.2     1  LIG  -0.5095  -0.3800 
15    N4       0.0040    0.4104    1.0054 N.pl3   1  LIG  -0.6510  -0.8000 
16    H1       0.7757   -1.7353    1.9482 H       1  LIG   0.2902   0.3700 
17    H2      -0.3082    1.2829    0.5933 H       1  LIG   0.3452   0.3700 
18    H3      -0.0228    0.3399    2.0159 H       1  LIG   0.2990   0.3700 
19    H4       4.5344   -8.4201   -2.5421 H       1  LIG   0.0329   0.0000 
20    H5       4.2148  -10.1276   -2.2659 H       1  LIG   0.0445   0.0000 
21    H6       2.8662   -9.0591   -2.6310 H       1  LIG   0.0363   0.0000 
22    H7       4.7804   -9.5485    0.9526 H       1  LIG   0.0310   0.0000 
23    H8       3.1122  -10.1875    0.8637 H       1  LIG   0.0331   0.0000 
24    H9       4.3587  -10.7873   -0.2227 H       1  LIG   0.0452   0.0000 
25    H10      2.9086   -6.7236   -2.2212 H       1  LIG   0.1368   0.1500 
26    H11      2.0530   -4.5948   -1.4677 H       1  LIG   0.1601   0.1500 
27    H12      2.3402   -5.9145    2.6296 H       1  LIG   0.1243   0.1500 
28    H13      3.1977   -8.0502    1.8884 H       1  LIG   0.1326   0.1500 
29    H14      1.5152   -3.7042    2.2240 H       1  LIG  -0.0179   0.0600 
@<TRIPOS>BOND
1     1     2     1
2     1     19    1
3     1     20    1
4     1     21    1
5     2     3     1
6     2     4     1
7     3     22    1
8     3     23    1
9     3     24    1
10    4     9     ar
11    4     5     ar
12    5     6     ar
13    5     25    1
14    6     7     ar
15    6     26    1
16    7     8     ar
17    7     10    1
18    8     9     ar
19    8     27    1
20    9     28    1
21    10    11    2
22    10    29    1
23    11    12    1
24    12    13    1
25    12    16    1
26    13    14    2
27    13    15    1
28    15    17    1
29    15    18    1
@<TRIPOS>SUBSTRUCTURE
1   LIG    1    
 
########## Number      : 970
########## Name        : ZINC00028096
########## Description : AM1BCC_CHARGES =  -0.0001 ORIGINAL_CHARGES =   0.0000

@<TRIPOS>MOLECULE
ZINC00028096
26    26    1     0     0    
SMALL
USER_CHARGES
****
****
@<TRIPOS>ATOM
1     C1       5.6688   -3.0679    2.6680 C.3     1  LIG   0.1076   0.2800 
2     O1       5.7629   -4.3413    3.2949 O.3     1  LIG  -0.3061  -0.3625 
3     C2       5.0856   -5.3791    2.7089 C.ar    1  LIG   0.0968   0.0825 
4     C3       4.3125   -5.2829    1.5469 C.ar    1  LIG  -0.1378  -0.1500 
5     C4       3.6647   -6.4186    1.0415 C.ar    1  LIG  -0.1287   0.0862 
6     C5       3.7812   -7.6519    1.6857 C.ar    1  LIG  -0.1110  -0.1500 
7     C6       4.5498   -7.7536    2.8430 C.ar    1  LIG  -0.1963  -0.1500 
8     C7       5.1950   -6.6223    3.3465 C.ar    1  LIG   0.1142   0.0825 
9     O2       5.9514   -6.7212    4.4851 O.3     1  LIG  -0.4711  -0.5325 
10    C8       2.8433   -6.3469   -0.1813 C.2     1  LIG   0.3784   0.3038 
11    N1       2.6866   -5.2416   -0.8346 N.2     1  LIG  -0.4107  -0.5120 
12    N2       1.9017   -5.3481   -1.9356 N.pl3   1  LIG  -0.3080  -0.3680 
13    C9       1.6384   -4.2552   -2.7394 C.2     1  LIG   0.5936   0.5000 
14    S1       2.2022   -2.6945   -2.5197 S.2     1  LIG  -0.5020  -0.3800 
15    N3       0.8253   -4.5551   -3.8072 N.pl3   1  LIG  -0.6473  -0.8000 
16    H1       5.9252   -7.6402    4.8007 H       1  LIG   0.4150   0.4500 
17    H2       1.5095   -6.2573   -2.1565 H       1  LIG   0.2927   0.3700 
18    H3       0.5582   -3.8372   -4.4720 H       1  LIG   0.3466   0.3700 
19    H4       0.4682   -5.4898   -3.9669 H       1  LIG   0.3007   0.3700 
20    H5       6.2610   -2.3614    3.2577 H       1  LIG   0.0680   0.0000 
21    H6       6.0907   -3.0929    1.6579 H       1  LIG   0.0393   0.0000 
22    H7       4.6348   -2.7078    2.6585 H       1  LIG   0.0389   0.0000 
23    H8       4.2044   -4.3369    1.0256 H       1  LIG   0.1713   0.1500 
24    H9       3.2822   -8.5370    1.3003 H       1  LIG   0.1315   0.1500 
25    H10      4.6383   -8.7146    3.3417 H       1  LIG   0.1368   0.1500 
26    H11      2.3670   -7.2887   -0.5119 H       1  LIG  -0.0125   0.0600 
@<TRIPOS>BOND
1     1     2     1
2     1     20    1
3     1     21    1
4     1     22    1
5     2     3     1
6     3     8     ar
7     3     4     ar
8     4     5     ar
9     4     23    1
10    5     6     ar
11    5     10    1
12    6     7     ar
13    6     24    1
14    7     8     ar
15    7     25    1
16    8     9     1
17    9     16    1
18    10    11    2
19    10    26    1
20    11    12    1
21    12    13    1
22    12    17    1
23    13    14    2
24    13    15    1
25    15    18    1
26    15    19    1
@<TRIPOS>SUBSTRUCTURE
1   LIG    1    
 
########## Number      : 971
########## Name        : ZINC00028103
########## Description : AM1BCC_CHARGES =   0.0001 ORIGINAL_CHARGES =   0.0000

@<TRIPOS>MOLECULE
ZINC00028103
26    26    1     0     0    
SMALL
USER_CHARGES
****
****
@<TRIPOS>ATOM
1     C1       5.2532   -9.2061   -1.4864 C.3     1  LIG   0.1146   0.2800 
2     O1       5.1077   -7.8926   -0.9592 O.3     1  LIG  -0.3300  -0.3625 
3     C2       3.8288   -7.4245   -0.8112 C.ar    1  LIG   0.0763   0.0825 
4     C3       2.6620   -8.1216   -1.1313 C.ar    1  LIG  -0.1446  -0.1500 
5     C4       1.4133   -7.5274   -0.9312 C.ar    1  LIG  -0.1418  -0.1500 
6     C5       1.3222   -6.2365   -0.4114 C.ar    1  LIG   0.1605   0.0825 
7     C6       2.4837   -5.5298   -0.0875 C.ar    1  LIG  -0.1923   0.0862 
8     C7       3.7336   -6.1282   -0.2893 C.ar    1  LIG  -0.1109  -0.1500 
9     C8       2.4802   -4.1606    0.4669 C.2     1  LIG   0.4010   0.3038 
10    N1       1.3821   -3.5154    0.6925 N.2     1  LIG  -0.4553  -0.5120 
11    N2       1.5566   -2.2711    1.2021 N.pl3   1  LIG  -0.3041  -0.3680 
12    C9       0.4787   -1.4578    1.4965 C.2     1  LIG   0.5926   0.5000 
13    S1      -1.1395   -1.8334    1.2919 S.2     1  LIG  -0.5035  -0.3800 
14    N3       0.8489   -0.2346    2.0039 N.pl3   1  LIG  -0.6446  -0.8000 
15    O2       0.0609   -5.7349   -0.2492 O.3     1  LIG  -0.4990  -0.5325 
16    H1       2.5051   -1.9489    1.3634 H       1  LIG   0.2977   0.3700 
17    H2       0.1485    0.4531    2.2596 H       1  LIG   0.3482   0.3700 
18    H3       1.8199    0.0217    2.1391 H       1  LIG   0.3025   0.3700 
19    H4       0.1259   -4.8348    0.1175 H       1  LIG   0.4649   0.4500 
20    H5       6.3236   -9.4270   -1.5412 H       1  LIG   0.0659   0.0000 
21    H6       4.7934   -9.9494   -0.8268 H       1  LIG   0.0324   0.0000 
22    H7       4.8477   -9.2712   -2.5015 H       1  LIG   0.0322   0.0000 
23    H8       2.6867   -9.1277   -1.5379 H       1  LIG   0.1418   0.1500 
24    H9       0.5116   -8.0797   -1.1841 H       1  LIG   0.1561   0.1500 
25    H10      4.6474   -5.5911   -0.0421 H       1  LIG   0.1458   0.1500 
26    H11      3.4678   -3.7110    0.6810 H       1  LIG  -0.0063   0.0600 
@<TRIPOS>BOND
1     1     2     1
2     1     20    1
3     1     21    1
4     1     22    1
5     2     3     1
6     3     8     ar
7     3     4     ar
8     4     5     ar
9     4     23    1
10    5     6     ar
11    5     24    1
12    6     7     ar
13    6     15    1
14    7     8     ar
15    7     9     1
16    8     25    1
17    9     10    2
18    9     26    1
19    10    11    1
20    11    12    1
21    11    16    1
22    12    13    2
23    12    14    1
24    14    17    1
25    14    18    1
26    15    19    1
@<TRIPOS>SUBSTRUCTURE
1   LIG    1    
 
########## Number      : 972
########## Name        : ZINC00028113
########## Description : AM1BCC_CHARGES =  -1.0002 ORIGINAL_CHARGES =  -1.0000

@<TRIPOS>MOLECULE
ZINC00028113
34    36    1     0     0    
SMALL
USER_CHARGES
****
****
@<TRIPOS>ATOM
1     C1       6.3447   -9.4322   -1.0677 C.ar    1  LIG  -0.1340  -0.1500 
2     C2       7.0982   -8.6030   -0.2518 C.ar    1  LIG  -0.1570  -0.1500 
3     C3       6.5126   -8.0014    0.8661 C.ar    1  LIG  -0.0902  -0.1500 
4     C4       5.1502   -8.2073    1.2093 C.ar    1  LIG  -0.0444   0.0000 
5     C5       4.4024   -9.0625    0.3540 C.ar    1  LIG  -0.0264   0.0000 
6     C6       5.0057   -9.6597   -0.7659 C.ar    1  LIG  -0.1322  -0.1500 
7     C7       3.0526   -9.3186    0.6205 C.ar    1  LIG  -0.1629  -0.1500 
8     C8       2.4254   -8.7451    1.7185 C.ar    1  LIG  -0.1022  -0.1500 
9     C9       3.1370   -7.9050    2.5703 C.ar    1  LIG  -0.1502  -0.1500 
10    C10      4.4911   -7.6217    2.3398 C.ar    1  LIG   0.0832   0.1170 
11    N1       5.2250   -6.7653    3.2079 N.am    1  LIG  -0.4668  -0.5470 
12    C11      4.7699   -6.1043    4.3387 C.2     1  LIG   0.7051   0.5438 
13    O1       3.6525   -6.0996    4.8385 O.2     1  LIG  -0.6107  -0.5700 
14    C12      5.8252   -5.3152    5.0123 C.ar    1  LIG  -0.1183   0.0862 
15    C13      6.9020   -6.0164    5.5738 C.ar    1  LIG  -0.1148  -0.1500 
16    C14      7.8902   -5.3276    6.2739 C.ar    1  LIG  -0.1637  -0.1500 
17    C15      7.8018   -3.9456    6.4218 C.ar    1  LIG  -0.1428  -0.1500 
18    C16      6.7277   -3.2477    5.8647 C.ar    1  LIG  -0.1142  -0.1500 
19    C17      5.7251   -3.9200    5.1469 C.ar    1  LIG  -0.0921  -0.1790 
20    C18      4.6133   -3.1228    4.5304 C.2     1  LIG   0.9114   0.9790 
21    O2       4.3082   -3.3935    3.3283 O.co2   1  LIG  -0.8459  -0.9000 
22    H1       6.1948   -6.6039    2.9638 H       1  LIG   0.3616   0.3700 
23    H2       6.7956   -9.9011   -1.9371 H       1  LIG   0.1167   0.1500 
24    H3       8.1442   -8.4190   -0.4799 H       1  LIG   0.1213   0.1500 
25    H4       7.1579   -7.3629    1.4626 H       1  LIG   0.1467   0.1500 
26    H5       4.4316  -10.3139   -1.4197 H       1  LIG   0.1192   0.1500 
27    H6       2.4716   -9.9712   -0.0283 H       1  LIG   0.1179   0.1500 
28    H7       1.3767   -8.9514    1.9137 H       1  LIG   0.1227   0.1500 
29    H8       2.5920   -7.4876    3.4087 H       1  LIG   0.1700   0.1500 
30    H9       6.9700   -7.0977    5.4852 H       1  LIG   0.1227   0.1500 
31    H10      8.7240   -5.8687    6.7118 H       1  LIG   0.1100   0.1500 
32    H11      8.5698   -3.4078    6.9705 H       1  LIG   0.1096   0.1500 
33    H12      6.6838   -2.1673    5.9853 H       1  LIG   0.1510   0.1500 
34    O3       4.0869   -2.2236    5.2563 O.co2   1  LIG  -0.8005  -0.9000 
@<TRIPOS>BOND
1     1     6     ar
2     1     2     ar
3     1     23    1
4     2     3     ar
5     2     24    1
6     3     4     ar
7     3     25    1
8     4     10    ar
9     4     5     ar
10    5     6     ar
11    5     7     ar
12    6     26    1
13    7     8     ar
14    7     27    1
15    8     9     ar
16    8     28    1
17    9     10    ar
18    9     29    1
19    10    11    1
20    11    12    am
21    11    22    1
22    12    13    2
23    12    14    1
24    14    19    ar
25    14    15    ar
26    15    16    ar
27    15    30    1
28    16    17    ar
29    16    31    1
30    17    18    ar
31    17    32    1
32    18    19    ar
33    18    33    1
34    19    20    1
35    20    21    2
36    20    34    1
@<TRIPOS>SUBSTRUCTURE
1   LIG    1    
 
########## Number      : 973
########## Name        : ZINC00028114
########## Description : AM1BCC_CHARGES =  -0.0002 ORIGINAL_CHARGES =   0.0000

@<TRIPOS>MOLECULE
ZINC00028114
26    27    1     0     0    
SMALL
USER_CHARGES
****
****
@<TRIPOS>ATOM
1     C1       5.1692   -9.0681   -2.4558 C.3     1  LIG  -0.1011   0.0000 
2     C2       5.6381   -8.2690   -1.2562 C.3     1  LIG   0.1407   0.2800 
3     O1       4.7260   -7.1779   -1.0600 O.3     1  LIG  -0.4547  -0.4300 
4     C3       5.0020   -6.3616   -0.0070 C.2     1  LIG   0.6526   0.7056 
5     O2       5.9502   -6.4821    0.7560 O.2     1  LIG  -0.5019  -0.5700 
6     C4       4.0051   -5.2561    0.0930 C.2     1  LIG  -0.2504   0.0288 
7     C5       2.7765   -5.4284   -0.4205 C.2     1  LIG   0.0654  -0.1784 
8     C6       1.7652   -4.3876   -0.3220 C.ar    1  LIG  -0.1803   0.0284 
9     C7       0.4851   -4.5373   -0.8614 C.ar    1  LIG  -0.0593  -0.1500 
10    C8      -0.4521   -3.5073   -0.7357 C.ar    1  LIG  -0.1636  -0.1500 
11    C9      -0.1154   -2.3261   -0.0713 C.ar    1  LIG  -0.0693  -0.1500 
12    C10      1.1588   -2.1703    0.4696 C.ar    1  LIG  -0.1541  -0.1500 
13    C11      2.0812   -3.2059    0.3354 C.ar    1  LIG   0.1715   0.0825 
14    O3       3.3594   -3.0209    0.8906 O.3     1  LIG  -0.3244  -0.2325 
15    C12      4.3532   -3.9917    0.7968 C.2     1  LIG   0.7352   0.7056 
16    O4       5.4668   -3.7931    1.2706 O.2     1  LIG  -0.5253  -0.5700 
17    H1       5.8355   -9.9141   -2.6458 H       1  LIG   0.0503   0.0000 
18    H2       4.1543   -9.4461   -2.2941 H       1  LIG   0.0453   0.0000 
19    H3       5.1349   -8.4368   -3.3498 H       1  LIG   0.0488   0.0000 
20    H4       5.6463   -8.9047   -0.3640 H       1  LIG   0.0532   0.0000 
21    H5       6.6443   -7.8762   -1.4388 H       1  LIG   0.0575   0.0000 
22    H6       2.4788   -6.3471   -0.9167 H       1  LIG   0.1683   0.1500 
23    H7       0.2024   -5.4490   -1.3818 H       1  LIG   0.1426   0.1500 
24    H8      -1.4467   -3.6268   -1.1565 H       1  LIG   0.1439   0.1500 
25    H9      -0.8476   -1.5293    0.0236 H       1  LIG   0.1445   0.1500 
26    H10      1.4243   -1.2535    0.9870 H       1  LIG   0.1644   0.1500 
@<TRIPOS>BOND
1     1     2     1
2     1     17    1
3     1     18    1
4     1     19    1
5     2     3     1
6     2     20    1
7     2     21    1
8     3     4     1
9     4     5     2
10    4     6     1
11    6     15    1
12    6     7     2
13    7     8     1
14    7     22    1
15    8     13    ar
16    8     9     ar
17    9     10    ar
18    9     23    1
19    10    11    ar
20    10    24    1
21    11    12    ar
22    11    25    1
23    12    13    ar
24    12    26    1
25    13    14    1
26    14    15    1
27    15    16    2
@<TRIPOS>SUBSTRUCTURE
1   LIG    1    
 
########## Number      : 974
########## Name        : ZINC00028115
########## Description : AM1BCC_CHARGES =  -1.0001 ORIGINAL_CHARGES =  -1.0000

@<TRIPOS>MOLECULE
ZINC00028115
31    32    1     0     0    
SMALL
USER_CHARGES
****
****
@<TRIPOS>ATOM
1     C1       4.1364   -6.8596   -2.3321 C.ar    1  LIG  -0.1666  -0.1500 
2     C2       4.9146   -7.8313   -1.7072 C.ar    1  LIG  -0.1467  -0.1500 
3     C3       5.5412   -7.5541   -0.4892 C.ar    1  LIG  -0.1151  -0.1500 
4     C4       5.3951   -6.3021    0.1302 C.ar    1  LIG  -0.0855  -0.1790 
5     C5       4.6016   -5.3374   -0.5127 C.ar    1  LIG  -0.1111   0.0862 
6     C6       3.9832   -5.6079   -1.7413 C.ar    1  LIG  -0.1235  -0.1500 
7     C7       4.4554   -3.9729    0.0208 C.2     1  LIG   0.7076   0.5438 
8     O1       5.3814   -3.1952   -0.2042 O.2     1  LIG  -0.6213  -0.5700 
9     N1       3.2771   -3.6576    0.7007 N.am    1  LIG  -0.4389  -0.6602 
10    C8       2.2242   -4.6144    1.0628 C.3     1  LIG   0.0752   0.3001 
11    C9       0.8563   -4.1061    0.6153 C.3     1  LIG  -0.0820   0.0000 
12    C10      0.5902   -2.6971    1.1440 C.3     1  LIG  -0.0723   0.0000 
13    C11      1.7268   -1.7474    0.7677 C.3     1  LIG  -0.0835   0.0000 
14    C12      3.0800   -2.3004    1.2069 C.3     1  LIG   0.0794   0.3001 
15    C13      6.0795   -6.0522    1.4430 C.2     1  LIG   0.9116   0.9790 
16    O2       5.4132   -5.4519    2.3412 O.co2   1  LIG  -0.8350  -0.9000 
17    H1       3.6561   -7.0755   -3.2820 H       1  LIG   0.1067   0.1500 
18    H2       5.0381   -8.8071   -2.1685 H       1  LIG   0.1072   0.1500 
19    H3       6.1438   -8.3298   -0.0210 H       1  LIG   0.1463   0.1500 
20    H4       3.3878   -4.8486   -2.2417 H       1  LIG   0.1192   0.1500 
21    H5       2.4058   -5.6043    0.6395 H       1  LIG   0.0557   0.0000 
22    H6       2.2507   -4.7235    2.1537 H       1  LIG   0.0846   0.0000 
23    H7       0.8137   -4.0929   -0.4809 H       1  LIG   0.0308   0.0000 
24    H8       0.0729   -4.7883    0.9631 H       1  LIG   0.0328   0.0000 
25    H9      -0.3570   -2.3215    0.7414 H       1  LIG   0.0181   0.0000 
26    H10      0.4867   -2.7293    2.2355 H       1  LIG   0.0386   0.0000 
27    H11      1.7286   -1.6048   -0.3202 H       1  LIG   0.0367   0.0000 
28    H12      1.5591   -0.7655    1.2235 H       1  LIG   0.0286   0.0000 
29    H13      3.1397   -2.3468    2.3007 H       1  LIG   0.0455   0.0000 
30    H14      3.8795   -1.6366    0.8629 H       1  LIG   0.0675   0.0000 
31    O3       7.2683   -6.4852    1.5562 O.co2   1  LIG  -0.8107  -0.9000 
@<TRIPOS>BOND
1     1     6     ar
2     1     2     ar
3     1     17    1
4     2     3     ar
5     2     18    1
6     3     4     ar
7     3     19    1
8     4     5     ar
9     4     15    1
10    5     6     ar
11    5     7     1
12    6     20    1
13    7     8     2
14    7     9     am
15    9     14    1
16    9     10    1
17    10    11    1
18    10    21    1
19    10    22    1
20    11    12    1
21    11    23    1
22    11    24    1
23    12    13    1
24    12    25    1
25    12    26    1
26    13    14    1
27    13    27    1
28    13    28    1
29    14    29    1
30    14    30    1
31    15    16    2
32    15    31    1
@<TRIPOS>SUBSTRUCTURE
1   LIG    1    
 
########## Number      : 975
########## Name        : ZINC00028120
########## Description : AM1BCC_CHARGES =  -0.0001 ORIGINAL_CHARGES =   0.0000

@<TRIPOS>MOLECULE
ZINC00028120
30    31    1     0     0    
SMALL
USER_CHARGES
****
****
@<TRIPOS>ATOM
1     C1       5.5844  -10.9868   -0.6542 C.ar    1  LIG  -0.1552  -0.1500 
2     C2       6.7919  -10.3634   -0.3545 C.ar    1  LIG  -0.1028  -0.1500 
3     C3       6.7969   -9.0816    0.1997 C.ar    1  LIG  -0.1854  -0.1500 
4     C4       5.5942   -8.4079    0.4609 C.ar    1  LIG   0.0691   0.1170 
5     C5       4.3868   -9.0432    0.1560 C.ar    1  LIG  -0.1536  -0.1500 
6     C6       4.3845  -10.3273   -0.3991 C.ar    1  LIG  -0.1030  -0.1500 
7     N1       5.6946   -7.1135    1.0229 N.am    1  LIG  -0.4788  -0.5470 
8     C7       4.6531   -6.2569    1.3672 C.2     1  LIG   0.6660   0.5690 
9     O1       3.4501   -6.4647    1.2472 O.2     1  LIG  -0.5395  -0.5700 
10    C8       5.1929   -4.9546    1.9436 C.3     1  LIG   0.0470   0.3410 
11    O2       4.1000   -4.1133    2.2800 O.3     1  LIG  -0.2781  -0.3625 
12    C9       4.3856   -2.8855    2.8179 C.ar    1  LIG   0.1289   0.0825 
13    C10      5.6770   -2.4024    3.0590 C.ar    1  LIG  -0.1941  -0.1500 
14    C11      5.8681   -1.1328    3.6126 C.ar    1  LIG  -0.0896  -0.1500 
15    C12      4.7684   -0.3385    3.9284 C.ar    1  LIG  -0.0076   0.1770 
16    C13      3.4756   -0.8010    3.6962 C.ar    1  LIG  -0.0934  -0.1500 
17    C14      3.2884   -2.0710    3.1425 C.ar    1  LIG   0.0025   0.1770 
18    Cl1      1.6658   -2.6068    2.8703 Cl      1  LIG  -0.0486  -0.1770 
19    Cl2      5.0095    1.2240    4.6099 Cl      1  LIG  -0.0832  -0.1770 
20    H1       6.6421   -6.7838    1.1891 H       1  LIG   0.3127   0.3700 
21    H2       5.5773  -11.9836   -1.0853 H       1  LIG   0.1343   0.1500 
22    H3       7.7306  -10.8733   -0.5515 H       1  LIG   0.1320   0.1500 
23    H4       7.7538   -8.6161    0.4248 H       1  LIG   0.1263   0.1500 
24    H5       3.4251   -8.5759    0.3340 H       1  LIG   0.1730   0.1500 
25    H6       3.4404  -10.8122   -0.6323 H       1  LIG   0.1362   0.1500 
26    H7       5.7793   -5.1987    2.8375 H       1  LIG   0.0636   0.0000 
27    H8       5.8208   -4.4817    1.1790 H       1  LIG   0.0636   0.0000 
28    H9       6.5617   -2.9878    2.8280 H       1  LIG   0.1407   0.1500 
29    H10      6.8800   -0.7778    3.7914 H       1  LIG   0.1518   0.1500 
30    H11      2.6192   -0.1786    3.9439 H       1  LIG   0.1651   0.1500 
@<TRIPOS>BOND
1     1     6     ar
2     1     2     ar
3     1     21    1
4     2     3     ar
5     2     22    1
6     3     4     ar
7     3     23    1
8     4     5     ar
9     4     7     1
10    5     6     ar
11    5     24    1
12    6     25    1
13    7     8     am
14    7     20    1
15    8     9     2
16    8     10    1
17    10    11    1
18    10    26    1
19    10    27    1
20    11    12    1
21    12    17    ar
22    12    13    ar
23    13    14    ar
24    13    28    1
25    14    15    ar
26    14    29    1
27    15    16    ar
28    15    19    1
29    16    17    ar
30    16    30    1
31    17    18    1
@<TRIPOS>SUBSTRUCTURE
1   LIG    1    
 
########## Number      : 976
########## Name        : ZINC00028125
########## Description : AM1BCC_CHARGES =   0.0001 ORIGINAL_CHARGES =   0.0000

@<TRIPOS>MOLECULE
ZINC00028125
34    35    1     0     0    
SMALL
USER_CHARGES
****
****
@<TRIPOS>ATOM
1     C1       4.3120  -10.4641   -2.7227 C.3     1  LIG   0.1132   0.2800 
2     O1       4.9728  -10.7190   -1.4888 O.3     1  LIG  -0.3272  -0.3625 
3     C2       5.0014   -9.6945   -0.5815 C.ar    1  LIG   0.1001   0.0825 
4     C3       4.4431   -8.4282   -0.7575 C.ar    1  LIG  -0.1766  -0.1500 
5     C4       4.5404   -7.4609    0.2527 C.ar    1  LIG  -0.1191  -0.1500 
6     C5       5.1971   -7.7474    1.4518 C.ar    1  LIG   0.0334   0.1170 
7     C6       5.7558   -9.0201    1.6232 C.ar    1  LIG  -0.1515  -0.1500 
8     C7       5.6584   -9.9836    0.6159 C.ar    1  LIG  -0.1291  -0.1500 
9     N1       5.3418   -6.8335    2.5215 N.am    1  LIG  -0.4761  -0.5470 
10    C8       4.8762   -5.5234    2.5845 C.2     1  LIG   0.6666   0.5690 
11    O2       4.2518   -4.9151    1.7214 O.2     1  LIG  -0.5444  -0.5700 
12    C9       5.2439   -4.8827    3.9164 C.3     1  LIG   0.0458   0.3410 
13    O3       4.7511   -3.5515    3.9372 O.3     1  LIG  -0.2768  -0.3625 
14    C10      4.9846   -2.8053    5.0628 C.ar    1  LIG   0.1282   0.0825 
15    C11      5.6737   -3.2617    6.1924 C.ar    1  LIG  -0.1939  -0.1500 
16    C12      5.8623   -2.4238    7.2957 C.ar    1  LIG  -0.0897  -0.1500 
17    C13      5.3626   -1.1238    7.2756 C.ar    1  LIG  -0.0077   0.1770 
18    C14      4.6743   -0.6509    6.1614 C.ar    1  LIG  -0.0934  -0.1500 
19    C15      4.4876   -1.4916    5.0602 C.ar    1  LIG   0.0024   0.1770 
20    Cl1      3.6269   -0.8642    3.6964 Cl      1  LIG  -0.0490  -0.1770 
21    Cl2      5.5977   -0.0962    8.6369 Cl      1  LIG  -0.0832  -0.1770 
22    H1       5.8457   -7.1873    3.3310 H       1  LIG   0.3124   0.3700 
23    H2       4.3768  -11.3722   -3.3299 H       1  LIG   0.0662   0.0000 
24    H3       3.2509  -10.2448   -2.5644 H       1  LIG   0.0338   0.0000 
25    H4       4.8056   -9.6581   -3.2758 H       1  LIG   0.0340   0.0000 
26    H5       3.9221   -8.1542   -1.6700 H       1  LIG   0.1423   0.1500 
27    H6       4.0873   -6.4951    0.0591 H       1  LIG   0.1751   0.1500 
28    H7       6.2748   -9.2802    2.5430 H       1  LIG   0.1295   0.1500 
29    H8       6.1007  -10.9644    0.7737 H       1  LIG   0.1506   0.1500 
30    H9       4.7825   -5.4758    4.7150 H       1  LIG   0.0633   0.0000 
31    H10      6.3370   -4.8892    4.0037 H       1  LIG   0.0631   0.0000 
32    H11      6.0795   -4.2671    6.2502 H       1  LIG   0.1410   0.1500 
33    H12      6.4006   -2.7993    8.1623 H       1  LIG   0.1518   0.1500 
34    H13      4.2854    0.3645    6.1489 H       1  LIG   0.1650   0.1500 
@<TRIPOS>BOND
1     1     2     1
2     1     23    1
3     1     24    1
4     1     25    1
5     2     3     1
6     3     8     ar
7     3     4     ar
8     4     5     ar
9     4     26    1
10    5     6     ar
11    5     27    1
12    6     7     ar
13    6     9     1
14    7     8     ar
15    7     28    1
16    8     29    1
17    9     10    am
18    9     22    1
19    10    11    2
20    10    12    1
21    12    13    1
22    12    30    1
23    12    31    1
24    13    14    1
25    14    19    ar
26    14    15    ar
27    15    16    ar
28    15    32    1
29    16    17    ar
30    16    33    1
31    17    18    ar
32    17    21    1
33    18    19    ar
34    18    34    1
35    19    20    1
@<TRIPOS>SUBSTRUCTURE
1   LIG    1    
 
########## Number      : 977
########## Name        : ZINC00028143
########## Description : AM1BCC_CHARGES =  -1.0002 ORIGINAL_CHARGES =  -1.0000

@<TRIPOS>MOLECULE
ZINC00028143
34    36    1     0     0    
SMALL
USER_CHARGES
****
****
@<TRIPOS>ATOM
1     C1       2.1686    7.2935   14.7733 C.ar    1  LIG  -0.1531  -0.1500 
2     C2       3.2674    7.6515   13.9945 C.ar    1  LIG  -0.1443  -0.1500 
3     C3       3.0786    8.3092   12.7777 C.ar    1  LIG  -0.0975  -0.1500 
4     C4       1.7877    8.6167   12.3284 C.ar    1  LIG  -0.0441  -0.1435 
5     C5       0.6894    8.2504   13.1199 C.ar    1  LIG  -0.1376  -0.1500 
6     C6       0.8798    7.5926   14.3361 C.ar    1  LIG  -0.1473  -0.1500 
7     C7       1.5766    9.3309   11.0127 C.3     1  LIG  -0.0423   0.1435 
8     C8       1.1817   10.8152   11.1764 C.3     1  LIG  -0.0266   0.1941 
9     C9       2.3378   11.7651   11.5702 C.2     1  LIG   0.9186   0.9060 
10    O1       3.5089   11.3039   11.4874 O.co2   1  LIG  -0.8145  -0.9000 
11    N1       0.5631   11.2911    9.9306 N.am    1  LIG  -0.4634  -0.4201 
12    C10      1.2007   11.3675    8.7098 C.2     1  LIG   0.7236   0.5438 
13    O2       2.3365   11.0695    8.3908 O.2     1  LIG  -0.5597  -0.5700 
14    C11      0.2139   11.9030    7.7743 C.ar    1  LIG  -0.1318   0.0862 
15    C12      0.3271   12.1812    6.4272 C.ar    1  LIG  -0.0789  -0.1500 
16    C13     -0.8039   12.6930    5.7846 C.ar    1  LIG  -0.1329  -0.1500 
17    C14     -2.0031   12.9109    6.4933 C.ar    1  LIG  -0.1349  -0.1500 
18    C15     -2.0936   12.6210    7.8578 C.ar    1  LIG  -0.0791  -0.1500 
19    C16     -0.9642   12.1172    8.4704 C.ar    1  LIG  -0.1313   0.0862 
20    C17     -0.7456   11.7208    9.8596 C.2     1  LIG   0.7247   0.5438 
21    O3      -1.6026   11.7791   10.7219 O.2     1  LIG  -0.5945  -0.5700 
22    H1       2.3168    6.7826   15.7201 H       1  LIG   0.1078   0.1500 
23    H2       4.2728    7.4205   14.3345 H       1  LIG   0.1161   0.1500 
24    H3       3.9471    8.5839   12.1840 H       1  LIG   0.1757   0.1500 
25    H4      -0.3222    8.4771   12.7918 H       1  LIG   0.1256   0.1500 
26    H5       0.0224    7.3145   14.9421 H       1  LIG   0.1104   0.1500 
27    H6       2.4720    9.2261   10.3872 H       1  LIG   0.0891   0.0000 
28    H7       0.7853    8.7930   10.4717 H       1  LIG   0.0188   0.0000 
29    H8       0.4521   10.8620   12.0044 H       1  LIG   0.0720   0.0000 
30    H9       1.2503   12.0128    5.8849 H       1  LIG   0.1496   0.1500 
31    H10     -0.7605   12.9271    4.7238 H       1  LIG   0.1254   0.1500 
32    H11     -2.8680   13.3100    5.9693 H       1  LIG   0.1246   0.1500 
33    H12     -3.0142   12.7875    8.4051 H       1  LIG   0.1474   0.1500 
34    O4       1.9594   12.9180   11.9337 O.co2   1  LIG  -0.8158  -0.9000 
@<TRIPOS>BOND
1     1     6     ar
2     1     2     ar
3     1     22    1
4     2     3     ar
5     2     23    1
6     3     4     ar
7     3     24    1
8     4     5     ar
9     4     7     1
10    5     6     ar
11    5     25    1
12    6     26    1
13    7     8     1
14    7     27    1
15    7     28    1
16    8     9     1
17    8     11    1
18    8     29    1
19    9     10    2
20    9     34    1
21    11    20    am
22    11    12    am
23    12    13    2
24    12    14    1
25    14    19    ar
26    14    15    ar
27    15    16    ar
28    15    30    1
29    16    17    ar
30    16    31    1
31    17    18    ar
32    17    32    1
33    18    19    ar
34    18    33    1
35    19    20    1
36    20    21    2
@<TRIPOS>SUBSTRUCTURE
1   LIG    1    
 
########## Number      : 978
########## Name        : ZINC00028144
########## Description : AM1BCC_CHARGES =  -0.9998 ORIGINAL_CHARGES =  -1.0000

@<TRIPOS>MOLECULE
ZINC00028144
34    36    1     0     0    
SMALL
USER_CHARGES
****
****
@<TRIPOS>ATOM
1     C1       3.1916    7.0580   14.0852 C.ar    1  LIG  -0.1526  -0.1500 
2     C2       1.8602    7.2836   14.4294 C.ar    1  LIG  -0.1444  -0.1500 
3     C3       1.0193    7.9767   13.5568 C.ar    1  LIG  -0.0997  -0.1500 
4     C4       1.5028    8.4525   12.3311 C.ar    1  LIG  -0.0445  -0.1435 
5     C5       2.8441    8.2185   11.9947 C.ar    1  LIG  -0.1386  -0.1500 
6     C6       3.6835    7.5251   12.8680 C.ar    1  LIG  -0.1479  -0.1500 
7     C7       0.5979    9.2058   11.3827 C.3     1  LIG  -0.0413   0.1435 
8     C8       0.8700   10.7259   11.3519 C.3     1  LIG  -0.0270   0.1941 
9     C9       0.3401   11.5151   12.5728 C.2     1  LIG   0.9179   0.9060 
10    O1      -0.4543   10.9095   13.3430 O.co2   1  LIG  -0.8148  -0.9000 
11    N1       0.3018   11.2939   10.1208 N.am    1  LIG  -0.4624  -0.4201 
12    C10     -1.0399   11.3052    9.8007 C.2     1  LIG   0.7233   0.5438 
13    O2      -2.0010   10.8691   10.4061 O.2     1  LIG  -0.5601  -0.5700 
14    C11     -1.1379   11.9750    8.5055 C.ar    1  LIG  -0.1313   0.0862 
15    C12     -2.2464   12.2549    7.7325 C.ar    1  LIG  -0.0790  -0.1500 
16    C13     -2.0280   12.9156    6.5201 C.ar    1  LIG  -0.1327  -0.1500 
17    C14     -0.7261   13.2750    6.1154 C.ar    1  LIG  -0.1352  -0.1500 
18    C15      0.3815   12.9803    6.9156 C.ar    1  LIG  -0.0781  -0.1500 
19    C16      0.1410   12.3282    8.1079 C.ar    1  LIG  -0.1310   0.0862 
20    C17      1.0729   11.8880    9.1436 C.2     1  LIG   0.7256   0.5438 
21    O3       2.2783   12.0434    9.0784 O.2     1  LIG  -0.5951  -0.5700 
22    H1       3.8450    6.5194   14.7652 H       1  LIG   0.1082   0.1500 
23    H2       1.4755    6.9216   15.3785 H       1  LIG   0.1161   0.1500 
24    H3      -0.0161    8.1464   13.8424 H       1  LIG   0.1779   0.1500 
25    H4       3.2422    8.5769   11.0484 H       1  LIG   0.1253   0.1500 
26    H5       4.7211    7.3503   12.5984 H       1  LIG   0.1098   0.1500 
27    H6       0.7480    8.7808   10.3802 H       1  LIG   0.0214   0.0000 
28    H7      -0.4510    8.9963   11.6276 H       1  LIG   0.0887   0.0000 
29    H8       1.9671   10.8541   11.3580 H       1  LIG   0.0722   0.0000 
30    H9      -3.2462   11.9776    8.0461 H       1  LIG   0.1502   0.1500 
31    H10     -2.8722   13.1569    5.8789 H       1  LIG   0.1247   0.1500 
32    H11     -0.5842   13.7883    5.1677 H       1  LIG   0.1247   0.1500 
33    H12      1.3834   13.2553    6.6070 H       1  LIG   0.1473   0.1500 
34    O4       0.7762   12.7018   12.6510 O.co2   1  LIG  -0.8174  -0.9000 
@<TRIPOS>BOND
1     1     6     ar
2     1     2     ar
3     1     22    1
4     2     3     ar
5     2     23    1
6     3     4     ar
7     3     24    1
8     4     5     ar
9     4     7     1
10    5     6     ar
11    5     25    1
12    6     26    1
13    7     8     1
14    7     27    1
15    7     28    1
16    8     9     1
17    8     11    1
18    8     29    1
19    9     10    2
20    9     34    1
21    11    20    am
22    11    12    am
23    12    13    2
24    12    14    1
25    14    19    ar
26    14    15    ar
27    15    16    ar
28    15    30    1
29    16    17    ar
30    16    31    1
31    17    18    ar
32    17    32    1
33    18    19    ar
34    18    33    1
35    19    20    1
36    20    21    2
@<TRIPOS>SUBSTRUCTURE
1   LIG    1    
 
########## Number      : 979
########## Name        : ZINC00028146
########## Description : AM1BCC_CHARGES =  -0.0002 ORIGINAL_CHARGES =   0.0000

@<TRIPOS>MOLECULE
ZINC00028146
17    17    1     0     0    
SMALL
USER_CHARGES
****
****
@<TRIPOS>ATOM
1     C1       2.5597   -7.5073   -1.1358 C.ar    1  LIG  -0.0723  -0.1500 
2     C2       1.8503   -6.5250   -0.4410 C.ar    1  LIG  -0.1163  -0.1500 
3     C3       2.3586   -5.2303   -0.3654 C.ar    1  LIG   0.0000   0.1110 
4     C4       3.5691   -4.9104   -0.9773 C.ar    1  LIG  -0.1176  -0.1500 
5     C5       4.2791   -5.8933   -1.6729 C.ar    1  LIG  -0.0947  -0.1500 
6     C6       3.7779   -7.1979   -1.7579 C.ar    1  LIG  -0.1665   0.0862 
7     C7       4.5064   -8.2773   -2.4897 C.2     1  LIG   0.5810   0.4228 
8     O1       4.0803   -9.4270   -2.4152 O.2     1  LIG  -0.4970  -0.5700 
9     C8       5.7401   -7.8904   -3.2732 C.3     1  LIG  -0.1291   0.2910 
10    Br1      6.3775   -9.4101   -4.3036 Br      1  LIG  -0.1182  -0.2300 
11    Br2      1.4006   -3.8984    0.5748 Br      1  LIG  -0.0732  -0.1110 
12    H1       2.1441   -8.5110   -1.1834 H       1  LIG   0.1643   0.1500 
13    H2       0.9077   -6.7857    0.0328 H       1  LIG   0.1550   0.1500 
14    H3       3.9742   -3.9031   -0.9217 H       1  LIG   0.1523   0.1500 
15    H4       5.2212   -5.6095   -2.1324 H       1  LIG   0.1385   0.1500 
16    H5       5.5164   -7.1076   -4.0010 H       1  LIG   0.0959   0.0000 
17    H6       6.5538   -7.6060   -2.6030 H       1  LIG   0.0977   0.0000 
@<TRIPOS>BOND
1     1     6     ar
2     1     2     ar
3     1     12    1
4     2     3     ar
5     2     13    1
6     3     4     ar
7     3     11    1
8     4     5     ar
9     4     14    1
10    5     6     ar
11    5     15    1
12    6     7     1
13    7     8     2
14    7     9     1
15    9     10    1
16    9     16    1
17    9     17    1
@<TRIPOS>SUBSTRUCTURE
1   LIG    1    
 
########## Number      : 980
########## Name        : ZINC00028150
########## Description : AM1BCC_CHARGES =   0.0003 ORIGINAL_CHARGES =   0.0000

@<TRIPOS>MOLECULE
ZINC00028150
23    25    1     0     0    
SMALL
USER_CHARGES
****
****
@<TRIPOS>ATOM
1     C1       5.1338   -7.9039    0.1065 C.ar    1  LIG  -0.0927  -0.1500 
2     C2       4.5019   -8.4073    1.2378 C.ar    1  LIG  -0.1568  -0.1500 
3     C3       3.3851   -7.7541    1.7582 C.ar    1  LIG  -0.0823  -0.1500 
4     C4       2.8897   -6.5897    1.1508 C.ar    1  LIG  -0.0278   0.1015 
5     C5       3.5240   -6.0768    0.0080 C.ar    1  LIG   0.0847   0.1000 
6     C6       4.6481   -6.7473   -0.5034 C.ar    1  LIG  -0.1846  -0.1500 
7     N1       3.0698   -4.9162   -0.6381 N.pl3   1  LIG  -0.2938  -0.6000 
8     C7       1.9739   -4.1147   -0.2813 C.ar    1  LIG   0.0845   0.1000 
9     C8       1.6744   -2.9829   -1.0585 C.ar    1  LIG  -0.1845  -0.1500 
10    C9       0.5951   -2.1584   -0.7407 C.ar    1  LIG  -0.0928  -0.1500 
11    C10     -0.2010   -2.4540    0.3599 C.ar    1  LIG  -0.1566  -0.1500 
12    C11      0.0825   -3.5734    1.1417 C.ar    1  LIG  -0.0824  -0.1500 
13    C12      1.1665   -4.4084    0.8292 C.ar    1  LIG  -0.0279   0.1015 
14    S1       1.4562   -5.8191    1.8839 S.3     1  LIG  -0.1672  -0.2030 
15    H1       3.5926   -4.6238   -1.4551 H       1  LIG   0.2910   0.4000 
16    H2       6.0039   -8.4096   -0.3021 H       1  LIG   0.1335   0.1500 
17    H3       4.8767   -9.3077    1.7159 H       1  LIG   0.1364   0.1500 
18    H4       2.9066   -8.1660    2.6442 H       1  LIG   0.1417   0.1500 
19    H5       5.1562   -6.3689   -1.3877 H       1  LIG   0.1331   0.1500 
20    H6       2.2856   -2.7351   -1.9236 H       1  LIG   0.1331   0.1500 
21    H7       0.3777   -1.2875   -1.3523 H       1  LIG   0.1335   0.1500 
22    H8      -1.0425   -1.8147    0.6110 H       1  LIG   0.1364   0.1500 
23    H9      -0.5540   -3.7853    1.9983 H       1  LIG   0.1418   0.1500 
@<TRIPOS>BOND
1     1     6     ar
2     1     2     ar
3     1     16    1
4     2     3     ar
5     2     17    1
6     3     4     ar
7     3     18    1
8     4     14    1
9     4     5     ar
10    5     6     ar
11    5     7     1
12    6     19    1
13    7     8     1
14    7     15    1
15    8     13    ar
16    8     9     ar
17    9     10    ar
18    9     20    1
19    10    11    ar
20    10    21    1
21    11    12    ar
22    11    22    1
23    12    13    ar
24    12    23    1
25    13    14    1
@<TRIPOS>SUBSTRUCTURE
1   LIG    1    
 
########## Number      : 981
########## Name        : ZINC00028160
########## Description : AM1BCC_CHARGES =   0.0001 ORIGINAL_CHARGES =   0.0000

@<TRIPOS>MOLECULE
ZINC00028160
26    27    1     0     0    
SMALL
USER_CHARGES
****
****
@<TRIPOS>ATOM
1     C1       4.6738  -10.9410    0.2050 C.2     1  LIG  -0.2703  -0.1500 
2     C2       4.5302   -9.8575    1.1046 C.2     1  LIG  -0.2435  -0.1500 
3     C3       4.4519   -8.7152    0.3336 C.2     1  LIG   0.2171   0.0550 
4     O1       4.5401   -9.0435   -0.9892 O.3     1  LIG  -0.3259  -0.2800 
5     C4       4.6741  -10.3931   -1.0555 C.2     1  LIG   0.2494  -0.0100 
6     C5       4.3024   -7.3387    0.7018 C.2     1  LIG   0.2580   0.4750 
7     N1       4.2501   -6.4080   -0.1943 N.2     1  LIG  -0.3869  -0.5120 
8     N2       4.1070   -5.1556    0.3077 N.am    1  LIG  -0.3414  -0.3680 
9     C6       4.0587   -4.0889   -0.5720 C.2     1  LIG   0.6970   0.5438 
10    O2       4.1639   -4.1742   -1.7927 O.2     1  LIG  -0.5244  -0.5700 
11    C7       3.8893   -2.7497    0.0496 C.ar    1  LIG  -0.1518   0.0862 
12    C8       3.1862   -2.5724    1.2478 C.ar    1  LIG  -0.0953  -0.1500 
13    C9       3.0416   -1.2933    1.7908 C.ar    1  LIG  -0.1336  -0.1500 
14    C10      3.5928   -0.1933    1.1344 C.ar    1  LIG   0.0388   0.1770 
15    C11      4.2841   -0.3594   -0.0645 C.ar    1  LIG  -0.1315  -0.1500 
16    C12      4.4288   -1.6369   -0.6092 C.ar    1  LIG  -0.0674  -0.1500 
17    Cl1      3.4124    1.3817    1.8063 Cl      1  LIG  -0.0794  -0.1770 
18    H1       4.0712   -5.0457    1.3156 H       1  LIG   0.2981   0.3700 
19    H2       4.7656  -11.9903    0.4459 H       1  LIG   0.1625   0.1500 
20    H3       4.4888   -9.9044    2.1838 H       1  LIG   0.1599   0.1500 
21    H4       4.7566  -10.8056   -2.0505 H       1  LIG   0.0569   0.1500 
22    H5       4.2345   -7.1172    1.7827 H       1  LIG  -0.0004   0.0600 
23    H6       2.7240   -3.4075    1.7664 H       1  LIG   0.1406   0.1500 
24    H7       2.4925   -1.1682    2.7205 H       1  LIG   0.1534   0.1500 
25    H8       4.7130    0.4935   -0.5840 H       1  LIG   0.1567   0.1500 
26    H9       4.9720   -1.7508   -1.5443 H       1  LIG   0.1635   0.1500 
@<TRIPOS>BOND
1     1     5     2
2     1     2     1
3     1     19    1
4     2     3     2
5     2     20    1
6     3     4     1
7     3     6     1
8     4     5     1
9     5     21    1
10    6     7     2
11    6     22    1
12    7     8     1
13    8     9     am
14    8     18    1
15    9     10    2
16    9     11    1
17    11    16    ar
18    11    12    ar
19    12    13    ar
20    12    23    1
21    13    14    ar
22    13    24    1
23    14    15    ar
24    14    17    1
25    15    16    ar
26    15    25    1
27    16    26    1
@<TRIPOS>SUBSTRUCTURE
1   LIG    1    
 
########## Number      : 982
########## Name        : ZINC00028162
########## Description : AM1BCC_CHARGES =   0.0000 ORIGINAL_CHARGES =   0.0000

@<TRIPOS>MOLECULE
ZINC00028162
31    32    1     0     0    
SMALL
USER_CHARGES
****
****
@<TRIPOS>ATOM
1     C1       4.5279   -2.8030    1.3225 C.ar    1  LIG  -0.1409  -0.1500 
2     C2       3.8011   -1.9821    0.4577 C.ar    1  LIG  -0.0856  -0.1500 
3     C3       3.2278   -0.7995    0.9367 C.ar    1  LIG  -0.1195   0.0862 
4     C4       3.3746   -0.4296    2.2771 C.ar    1  LIG  -0.0397  -0.1500 
5     C5       4.1061   -1.2644    3.1288 C.ar    1  LIG  -0.1765   0.1330 
6     C6       4.6853   -2.4493    2.6629 C.ar    1  LIG  -0.0654  -0.1500 
7     N1       4.2687   -0.8933    4.5294 N.pl3   1  LIG   0.3119   0.9070 
8     O1       3.4226   -0.1376    5.0260 O.2     1  LIG  -0.1975  -0.5200 
9     O2       5.2430   -1.3576    5.1371 O.3     1  LIG  -0.2113  -0.5200 
10    C7       2.4702    0.0405   -0.0091 C.2     1  LIG   0.3416   0.3038 
11    N2       1.9144    1.1497    0.3567 N.2     1  LIG  -0.3993  -0.5120 
12    N3       1.2567    1.7989   -0.6354 N.am    1  LIG  -0.3397  -0.3680 
13    C8       0.6148    2.9880   -0.3390 C.2     1  LIG   0.6979   0.5438 
14    O3       0.5643    3.5049    0.7740 O.2     1  LIG  -0.5220  -0.5700 
15    C9      -0.0750    3.6481   -1.4779 C.ar    1  LIG  -0.1535   0.0862 
16    C10      0.3843    3.5243   -2.7951 C.ar    1  LIG  -0.0953  -0.1500 
17    C11     -0.2890    4.1719   -3.8340 C.ar    1  LIG  -0.1337  -0.1500 
18    C12     -1.4147    4.9465   -3.5562 C.ar    1  LIG   0.0404   0.1770 
19    C13     -1.8718    5.0845   -2.2466 C.ar    1  LIG  -0.1310  -0.1500 
20    C14     -1.1997    4.4389   -1.2070 C.ar    1  LIG  -0.0654  -0.1500 
21    Cl1     -2.2418    5.7435   -4.8390 Cl      1  LIG  -0.0764  -0.1770 
22    H1       1.2352    1.3697   -1.5542 H       1  LIG   0.2999   0.3700 
23    H2       4.9721   -3.7221    0.9497 H       1  LIG   0.1491   0.1500 
24    H3       3.6913   -2.2768   -0.5828 H       1  LIG   0.1409   0.1500 
25    H4       2.9321    0.4933    2.6426 H       1  LIG   0.1926   0.1500 
26    H5       5.2504   -3.1080    3.3168 H       1  LIG   0.1707   0.1500 
27    H6       2.4019   -0.3272   -1.0499 H       1  LIG  -0.0087   0.0600 
28    H7       1.2734    2.9492   -3.0371 H       1  LIG   0.1396   0.1500 
29    H8       0.0780    4.0693   -4.8521 H       1  LIG   0.1542   0.1500 
30    H9      -2.7460    5.6898   -2.0218 H       1  LIG   0.1580   0.1500 
31    H10     -1.5691    4.5549   -0.1908 H       1  LIG   0.1646   0.1500 
@<TRIPOS>BOND
1     1     6     ar
2     1     2     ar
3     1     23    1
4     2     3     ar
5     2     24    1
6     3     4     ar
7     3     10    1
8     4     5     ar
9     4     25    1
10    5     6     ar
11    5     7     1
12    6     26    1
13    7     8     2
14    7     9     1
15    10    11    2
16    10    27    1
17    11    12    1
18    12    13    am
19    12    22    1
20    13    14    2
21    13    15    1
22    15    20    ar
23    15    16    ar
24    16    17    ar
25    16    28    1
26    17    18    ar
27    17    29    1
28    18    19    ar
29    18    21    1
30    19    20    ar
31    19    30    1
32    20    31    1
@<TRIPOS>SUBSTRUCTURE
1   LIG    1    
 
########## Number      : 983
########## Name        : ZINC00028178
########## Description : AM1BCC_CHARGES =  -1.0001 ORIGINAL_CHARGES =  -1.0000

@<TRIPOS>MOLECULE
ZINC00028178
22    22    1     0     0    
SMALL
USER_CHARGES
****
****
@<TRIPOS>ATOM
1     C1       4.3658   -9.3022   -0.6115 C.ar    1  LIG  -0.1878  -0.1500 
2     C2       4.4395   -8.9653    0.7367 C.ar    1  LIG  -0.1041  -0.1500 
3     C3       3.9194   -7.7478    1.1812 C.ar    1  LIG  -0.2083  -0.1500 
4     C4       3.3192   -6.8526    0.2829 C.ar    1  LIG   0.1047   0.1170 
5     C5       3.2504   -7.2010   -1.0693 C.ar    1  LIG  -0.1707  -0.1500 
6     C6       3.7722   -8.4211   -1.5122 C.ar    1  LIG  -0.1054  -0.1500 
7     N1       2.8195   -5.6426    0.8220 N.am    1  LIG  -0.4834  -0.5470 
8     C7       2.1908   -4.6124    0.1368 C.2     1  LIG   0.6796   0.6156 
9     O1       1.9480   -4.5520   -1.0627 O.2     1  LIG  -0.6219  -0.5700 
10    C8       1.8103   -3.5045    1.0645 C.2     1  LIG  -0.3014  -0.1356 
11    C9       1.1901   -2.4126    0.5979 C.2     1  LIG  -0.0907  -0.4000 
12    C10      0.7907   -1.2638    1.5322 C.2     1  LIG   0.8852   1.0500 
13    O2       1.0740   -1.3978    2.7554 O.co2   1  LIG  -0.8244  -0.9000 
14    H1       2.9451   -5.5357    1.8252 H       1  LIG   0.3143   0.3700 
15    H2       4.7694  -10.2481   -0.9602 H       1  LIG   0.1176   0.1500 
16    H3       4.9013   -9.6486    1.4436 H       1  LIG   0.1164   0.1500 
17    H4       3.9892   -7.5077    2.2398 H       1  LIG   0.1240   0.1500 
18    H5       2.7996   -6.5530   -1.8120 H       1  LIG   0.1769   0.1500 
19    H6       3.7135   -8.6820   -2.5654 H       1  LIG   0.1210   0.1500 
20    H7       2.0498   -3.6112    2.1169 H       1  LIG   0.1501   0.1500 
21    H8       0.9571   -2.3216   -0.4616 H       1  LIG   0.1244   0.1500 
22    O3       0.2132   -0.3018    0.9463 O.co2   1  LIG  -0.8162  -0.9000 
@<TRIPOS>BOND
1     1     6     ar
2     1     2     ar
3     1     15    1
4     2     3     ar
5     2     16    1
6     3     4     ar
7     3     17    1
8     4     5     ar
9     4     7     1
10    5     6     ar
11    5     18    1
12    6     19    1
13    7     8     am
14    7     14    1
15    8     9     2
16    8     10    1
17    10    11    2
18    10    20    1
19    11    12    1
20    11    21    1
21    12    13    2
22    12    22    1
@<TRIPOS>SUBSTRUCTURE
1   LIG    1    
 
########## Number      : 984
########## Name        : ZINC00028189
########## Description : AM1BCC_CHARGES =   0.0003 ORIGINAL_CHARGES =   0.0000

@<TRIPOS>MOLECULE
ZINC00028189
33    34    1     0     0    
SMALL
USER_CHARGES
****
****
@<TRIPOS>ATOM
1     C1       7.3197  -10.3923   -2.1781 C.3     1  LIG   0.1109   0.2800 
2     O1       5.9523  -10.0118   -2.0795 O.3     1  LIG  -0.3206  -0.3625 
3     C2       5.6114   -9.1992   -1.0314 C.ar    1  LIG   0.1536   0.0825 
4     C3       6.4826   -8.7197   -0.0508 C.ar    1  LIG  -0.2166  -0.1500 
5     C4       6.0080   -7.8917    0.9734 C.ar    1  LIG  -0.0632  -0.1500 
6     C5       4.6568   -7.5323    1.0199 C.ar    1  LIG  -0.1907   0.0862 
7     C6       3.7808   -8.0225    0.0462 C.ar    1  LIG  -0.0442  -0.1500 
8     C7       4.2594   -8.8471   -0.9742 C.ar    1  LIG  -0.1647  -0.1500 
9     C8       4.1077   -6.6655    2.0947 C.2     1  LIG   0.7035   0.5438 
10    O2       2.9342   -6.7982    2.4323 O.2     1  LIG  -0.5378  -0.5700 
11    N1       4.9875   -5.7388    2.6248 N.am    1  LIG  -0.3395  -0.3680 
12    N2       4.5534   -4.9229    3.6169 N.2     1  LIG  -0.4072  -0.5120 
13    C9       5.4379   -4.0772    4.0414 C.2     1  LIG   0.3427   0.3038 
14    C10      5.1358   -3.1094    5.1214 C.ar    1  LIG  -0.1047   0.0862 
15    C11      3.8552   -3.1123    5.6942 C.ar    1  LIG  -0.0841  -0.1500 
16    C12      3.5341   -2.2147    6.7141 C.ar    1  LIG  -0.1285  -0.1500 
17    C13      4.4922   -1.3107    7.1653 C.ar    1  LIG   0.0280   0.1770 
18    C14      5.7694   -1.2957    6.6059 C.ar    1  LIG  -0.1265  -0.1500 
19    C15      6.0944   -2.1946    5.5829 C.ar    1  LIG   0.0322   0.1770 
20    Cl1      7.6985   -2.1122    4.9427 Cl      1  LIG  -0.0917  -0.1770 
21    Cl2      4.0966   -0.2034    8.4233 Cl      1  LIG  -0.0828  -0.1770 
22    H1       5.9362   -5.6170    2.2868 H       1  LIG   0.2990   0.3700 
23    H2       7.4259  -11.0295   -3.0613 H       1  LIG   0.0726   0.0000 
24    H3       7.9638   -9.5181   -2.3191 H       1  LIG   0.0360   0.0000 
25    H4       7.6302  -10.9777   -1.3063 H       1  LIG   0.0376   0.0000 
26    H5       7.5379   -8.9750   -0.0481 H       1  LIG   0.1438   0.1500 
27    H6       6.7112   -7.5602    1.7322 H       1  LIG   0.1352   0.1500 
28    H7       2.7245   -7.7654    0.0624 H       1  LIG   0.1610   0.1500 
29    H8       3.5673   -9.2157   -1.7278 H       1  LIG   0.1589   0.1500 
30    H9       6.4501   -4.0577    3.6031 H       1  LIG   0.0026   0.0600 
31    H10      3.0893   -3.8081    5.3596 H       1  LIG   0.1690   0.1500 
32    H11      2.5365   -2.2324    7.1452 H       1  LIG   0.1545   0.1500 
33    H12      6.5104   -0.5852    6.9660 H       1  LIG   0.1620   0.1500 
@<TRIPOS>BOND
1     1     2     1
2     1     23    1
3     1     24    1
4     1     25    1
5     2     3     1
6     3     8     ar
7     3     4     ar
8     4     5     ar
9     4     26    1
10    5     6     ar
11    5     27    1
12    6     7     ar
13    6     9     1
14    7     8     ar
15    7     28    1
16    8     29    1
17    9     10    2
18    9     11    am
19    11    12    1
20    11    22    1
21    12    13    2
22    13    14    1
23    13    30    1
24    14    19    ar
25    14    15    ar
26    15    16    ar
27    15    31    1
28    16    17    ar
29    16    32    1
30    17    18    ar
31    17    21    1
32    18    19    ar
33    18    33    1
34    19    20    1
@<TRIPOS>SUBSTRUCTURE
1   LIG    1    
 
########## Number      : 985
########## Name        : ZINC00028203
########## Description : AM1BCC_CHARGES =   0.0001 ORIGINAL_CHARGES =   0.0000

@<TRIPOS>MOLECULE
ZINC00028203
25    26    1     0     0    
SMALL
USER_CHARGES
****
****
@<TRIPOS>ATOM
1     C1       4.2125  -10.4579   -0.0557 C.2     1  LIG  -0.2706  -0.1500 
2     C2       3.7330   -9.4277    0.7886 C.2     1  LIG  -0.2410  -0.1500 
3     C3       3.7422   -8.2693    0.0382 C.2     1  LIG   0.2145   0.0550 
4     O1       4.2018   -8.5371   -1.2198 O.3     1  LIG  -0.3256  -0.2800 
5     C4       4.4835   -9.8646   -1.2655 C.2     1  LIG   0.2508  -0.0100 
6     C5       3.3649   -6.9280    0.3716 C.2     1  LIG   0.2625   0.4750 
7     N1       3.4528   -5.9728   -0.4955 N.2     1  LIG  -0.3884  -0.5120 
8     N2       3.0596   -4.7592   -0.0330 N.am    1  LIG  -0.3396  -0.3680 
9     C6       3.1339   -3.6694   -0.8821 C.2     1  LIG   0.6930   0.5438 
10    O2       3.5593   -3.7000   -2.0339 O.2     1  LIG  -0.5209  -0.5700 
11    C7       2.6760   -2.3753   -0.3130 C.ar    1  LIG  -0.1108   0.0862 
12    C8       1.7006   -2.3049    0.6824 C.ar    1  LIG  -0.2246  -0.1500 
13    C9       1.3312   -1.0489    1.1401 C.ar    1  LIG   0.3903   0.1600 
14    N3       1.8523    0.1102    0.6820 N.ar    1  LIG  -0.6442  -0.6200 
15    C10      2.7852    0.0075   -0.2891 C.ar    1  LIG   0.3911   0.1600 
16    C11      3.2250   -1.1952   -0.8188 C.ar    1  LIG  -0.1929  -0.1500 
17    H1       2.7536   -4.6923    0.9319 H       1  LIG   0.2988   0.3700 
18    H2       4.3440  -11.5024    0.1877 H       1  LIG   0.1631   0.1500 
19    H3       3.4192   -9.5196    1.8189 H       1  LIG   0.1603   0.1500 
20    H4       4.8614  -10.2293   -2.2096 H       1  LIG   0.0573   0.1500 
21    H5       2.9982   -6.7552    1.4000 H       1  LIG  -0.0000   0.0600 
22    H6       1.2132   -3.1833    1.0890 H       1  LIG   0.1457   0.1500 
23    H7       0.5750   -0.9399    1.9113 H       1  LIG   0.0290   0.1500 
24    H8       3.1863    0.9509   -0.6455 H       1  LIG   0.0324   0.1500 
25    H9       3.9802   -1.2009   -1.5978 H       1  LIG   0.1699   0.1500 
@<TRIPOS>BOND
1     1     5     2
2     1     2     1
3     1     18    1
4     2     3     2
5     2     19    1
6     3     4     1
7     3     6     1
8     4     5     1
9     5     20    1
10    6     7     2
11    6     21    1
12    7     8     1
13    8     9     am
14    8     17    1
15    9     10    2
16    9     11    1
17    11    16    ar
18    11    12    ar
19    12    13    ar
20    12    22    1
21    13    14    ar
22    13    23    1
23    14    15    ar
24    15    16    ar
25    15    24    1
26    16    25    1
@<TRIPOS>SUBSTRUCTURE
1   LIG    1    
 
########## Number      : 986
########## Name        : ZINC00028206
########## Description : AM1BCC_CHARGES =   0.0001 ORIGINAL_CHARGES =  -0.0000

@<TRIPOS>MOLECULE
ZINC00028206
28    29    1     0     0    
SMALL
USER_CHARGES
****
****
@<TRIPOS>ATOM
1     C1       5.8300   -8.5938    0.1089 C.ar    1  LIG  -0.1488  -0.1500 
2     C2       5.0566   -9.7458    0.2644 C.ar    1  LIG  -0.0965  -0.1500 
3     C3       3.7486   -9.6500    0.7368 C.ar    1  LIG  -0.1693  -0.1500 
4     C4       3.2210   -8.4004    1.0515 C.ar    1  LIG   0.1321   0.1900 
5     C5       3.9879   -7.2451    0.8987 C.ar    1  LIG  -0.1528   0.0862 
6     C6       5.2991   -7.3410    0.4251 C.ar    1  LIG  -0.0732  -0.1500 
7     C7       3.3925   -5.9423    1.2429 C.2     1  LIG   0.3615   0.3038 
8     N1       4.0536   -4.8368    1.1215 N.2     1  LIG  -0.4153  -0.5120 
9     N2       3.3599   -3.7286    1.4810 N.am    1  LIG  -0.3383  -0.3680 
10    C8       3.9874   -2.4983    1.4022 C.2     1  LIG   0.6937   0.5438 
11    O1       5.1519   -2.3217    1.0534 O.2     1  LIG  -0.5302  -0.5700 
12    C9       3.1642   -1.3267    1.7999 C.ar    1  LIG  -0.1103   0.0862 
13    C10      1.7757   -1.3126    1.6611 C.ar    1  LIG  -0.2247  -0.1500 
14    C11      1.0972   -0.1668    2.0491 C.ar    1  LIG   0.3909   0.1600 
15    N3       1.6942    0.9370    2.5490 N.ar    1  LIG  -0.6446  -0.6200 
16    C12      3.0395    0.8949    2.6595 C.ar    1  LIG   0.3911   0.1600 
17    C13      3.8140   -0.1966    2.3002 C.ar    1  LIG  -0.1937  -0.1500 
18    F1       1.9607   -8.3266    1.5047 F       1  LIG  -0.1437  -0.1900 
19    H1       2.4130   -3.8499    1.8239 H       1  LIG   0.3008   0.3700 
20    H2       6.8493   -8.6719   -0.2595 H       1  LIG   0.1411   0.1500 
21    H3       5.4750  -10.7174    0.0168 H       1  LIG   0.1393   0.1500 
22    H4       3.1439  -10.5433    0.8591 H       1  LIG   0.1499   0.1500 
23    H5       5.9194   -6.4581    0.2963 H       1  LIG   0.1629   0.1500 
24    H6       2.3499   -5.9554    1.6109 H       1  LIG   0.0011   0.0600 
25    H7       1.2192   -2.1453    1.2470 H       1  LIG   0.1467   0.1500 
26    H8       0.0172   -0.1046    1.9587 H       1  LIG   0.0294   0.1500 
27    H9       3.4981    1.7940    3.0586 H       1  LIG   0.0321   0.1500 
28    H10      4.8919   -0.1592    2.4186 H       1  LIG   0.1689   0.1500 
@<TRIPOS>BOND
1     1     6     ar
2     1     2     ar
3     1     20    1
4     2     3     ar
5     2     21    1
6     3     4     ar
7     3     22    1
8     4     5     ar
9     4     18    1
10    5     6     ar
11    5     7     1
12    6     23    1
13    7     8     2
14    7     24    1
15    8     9     1
16    9     10    am
17    9     19    1
18    10    11    2
19    10    12    1
20    12    17    ar
21    12    13    ar
22    13    14    ar
23    13    25    1
24    14    15    ar
25    14    26    1
26    15    16    ar
27    16    17    ar
28    16    27    1
29    17    28    1
@<TRIPOS>SUBSTRUCTURE
1   LIG    1    
 
########## Number      : 987
########## Name        : ZINC00028209
########## Description : AM1BCC_CHARGES =   0.0001 ORIGINAL_CHARGES =   0.0000

@<TRIPOS>MOLECULE
ZINC00028209
27    27    1     0     0    
SMALL
USER_CHARGES
****
****
@<TRIPOS>ATOM
1     C1       6.8662   -9.2737   -0.7116 C.3     1  LIG  -0.1018   0.0000 
2     C2       5.4036   -9.1066   -0.3513 C.3     1  LIG   0.1408   0.2800 
3     O1       5.0914   -7.7056   -0.3810 O.3     1  LIG  -0.4249  -0.4300 
4     C3       3.8047   -7.3821   -0.0776 C.2     1  LIG   0.6461   0.7056 
5     O2       2.9190   -8.1746    0.2101 O.2     1  LIG  -0.5465  -0.5700 
6     C4       3.6279   -5.9018   -0.1488 C.2     1  LIG  -0.0667   0.0794 
7     C5       2.4018   -5.4250    0.1383 C.2     1  LIG   0.0421  -0.1784 
8     C6       2.0133   -4.0068    0.1332 C.ar    1  LIG  -0.1448   0.0284 
9     C7       2.0168   -3.2544   -1.0496 C.ar    1  LIG  -0.0588  -0.1500 
10    C8       1.6298   -1.9135   -1.0318 C.ar    1  LIG  -0.1601  -0.1500 
11    C9       1.2321   -1.3272    0.1663 C.ar    1  LIG   0.1511   0.0825 
12    C10      1.2125   -2.0639    1.3482 C.ar    1  LIG  -0.2215  -0.1500 
13    C11      1.5998   -3.4052    1.3295 C.ar    1  LIG  -0.0549  -0.1500 
14    O3       0.8592   -0.0130    0.1486 O.3     1  LIG  -0.4886  -0.5325 
15    C12      4.7239   -5.0531   -0.4855 C.1     1  LIG   0.2052   0.4921 
16    N1       5.6158   -4.3631   -0.7600 N.1     1  LIG  -0.3518  -0.5571 
17    H1       0.6116    0.2512    1.0511 H       1  LIG   0.4243   0.4500 
18    H2       7.1525  -10.3290   -0.7023 H       1  LIG   0.0480   0.0000 
19    H3       7.0678   -8.8611   -1.7057 H       1  LIG   0.0529   0.0000 
20    H4       7.5017   -8.7283   -0.0060 H       1  LIG   0.0516   0.0000 
21    H5       4.7769   -9.6366   -1.0769 H       1  LIG   0.0521   0.0000 
22    H6       5.2187   -9.5014    0.6538 H       1  LIG   0.0540   0.0000 
23    H7       1.5938   -6.0963    0.4234 H       1  LIG   0.1624   0.1500 
24    H8       2.3156   -3.7033   -1.9940 H       1  LIG   0.1490   0.1500 
25    H9       1.6383   -1.3359   -1.9518 H       1  LIG   0.1603   0.1500 
26    H10      0.8992   -1.6109    2.2842 H       1  LIG   0.1404   0.1500 
27    H11      1.5796   -3.9735    2.2568 H       1  LIG   0.1402   0.1500 
@<TRIPOS>BOND
1     1     2     1
2     1     18    1
3     1     19    1
4     1     20    1
5     2     3     1
6     2     21    1
7     2     22    1
8     3     4     1
9     4     5     2
10    4     6     1
11    6     7     2
12    6     15    1
13    7     8     1
14    7     23    1
15    8     13    ar
16    8     9     ar
17    9     10    ar
18    9     24    1
19    10    11    ar
20    10    25    1
21    11    12    ar
22    11    14    1
23    12    13    ar
24    12    26    1
25    13    27    1
26    14    17    1
27    15    16    3
@<TRIPOS>SUBSTRUCTURE
1   LIG    1    
 
########## Number      : 988
########## Name        : ZINC00028221
########## Description : AM1BCC_CHARGES =  -0.0000 ORIGINAL_CHARGES =  -0.0000

@<TRIPOS>MOLECULE
ZINC00028221
24    24    1     0     0    
SMALL
USER_CHARGES
****
****
@<TRIPOS>ATOM
1     C1       3.8147   -8.5241    0.5079 C.3     1  LIG  -0.0656   0.1435 
2     C2       3.2445   -7.1440    0.3595 C.ar    1  LIG  -0.0266  -0.1435 
3     C3       2.8541   -6.4330    1.5004 C.ar    1  LIG  -0.1220  -0.1500 
4     C4       2.3176   -5.1400    1.4059 C.ar    1  LIG  -0.1104  -0.1500 
5     C5       2.1629   -4.5195    0.1626 C.ar    1  LIG   0.0594   0.1170 
6     C6       2.5578   -5.2111   -0.9887 C.ar    1  LIG  -0.1263  -0.1500 
7     C7       3.0952   -6.4993   -0.8745 C.ar    1  LIG  -0.1490   0.1330 
8     N1       3.4987   -7.1564   -2.0988 N.pl3   1  LIG   0.3116   0.9070 
9     O1       4.6994   -7.4281   -2.2259 O.2     1  LIG  -0.2029  -0.5200 
10    O2       2.6119   -7.3844   -2.9316 O.3     1  LIG  -0.2137  -0.5200 
11    N2       1.6289   -3.2220   -0.0200 N.am    1  LIG  -0.4635  -0.5470 
12    C8       1.1879   -2.3444    0.9627 C.2     1  LIG   0.6643   0.5690 
13    O3       1.1971   -2.5203    2.1781 O.2     1  LIG  -0.5775  -0.5700 
14    C9       0.6782   -1.0466    0.3802 C.3     1  LIG  -0.0584   0.3510 
15    Cl1      1.9977    0.1321    0.4401 Cl      1  LIG  -0.1552  -0.2900 
16    H1       1.5776   -2.9058   -0.9852 H       1  LIG   0.3339   0.3700 
17    H2       3.6140   -8.9325    1.5044 H       1  LIG   0.0479   0.0000 
18    H3       3.3629   -9.2123   -0.2138 H       1  LIG   0.0652   0.0000 
19    H4       4.8993   -8.5034    0.3638 H       1  LIG   0.0779   0.0000 
20    H5       2.9589   -6.8805    2.4869 H       1  LIG   0.1516   0.1500 
21    H6       2.0324   -4.6548    2.3327 H       1  LIG   0.1825   0.1500 
22    H7       2.4552   -4.7475   -1.9679 H       1  LIG   0.1678   0.1500 
23    H8       0.3477   -1.1597   -0.6557 H       1  LIG   0.0972   0.0000 
24    H9      -0.1586   -0.6782    0.9802 H       1  LIG   0.1118   0.0000 
@<TRIPOS>BOND
1     1     2     1
2     1     17    1
3     1     18    1
4     1     19    1
5     2     7     ar
6     2     3     ar
7     3     4     ar
8     3     20    1
9     4     5     ar
10    4     21    1
11    5     6     ar
12    5     11    1
13    6     7     ar
14    6     22    1
15    7     8     1
16    8     9     2
17    8     10    1
18    11    12    am
19    11    16    1
20    12    13    2
21    12    14    1
22    14    15    1
23    14    23    1
24    14    24    1
@<TRIPOS>SUBSTRUCTURE
1   LIG    1    
 
########## Number      : 989
########## Name        : ZINC00028222
########## Description : AM1BCC_CHARGES =   0.0000 ORIGINAL_CHARGES =  -0.0000

@<TRIPOS>MOLECULE
ZINC00028222
24    24    1     0     0    
SMALL
USER_CHARGES
****
****
@<TRIPOS>ATOM
1     C1       5.0374   -7.4532   -0.0272 C.3     1  LIG  -0.0649   0.1435 
2     C2       3.9760   -6.4335    0.2654 C.ar    1  LIG  -0.0350  -0.1435 
3     C3       3.9353   -5.8227    1.5243 C.ar    1  LIG  -0.1179  -0.1500 
4     C4       2.9589   -4.8656    1.8390 C.ar    1  LIG  -0.1170  -0.1500 
5     C5       1.9905   -4.4973    0.9002 C.ar    1  LIG   0.0680   0.1170 
6     C6       2.0082   -5.1061   -0.3602 C.ar    1  LIG  -0.1374  -0.1500 
7     C7       2.9879   -6.0624   -0.6548 C.ar    1  LIG  -0.1429   0.1330 
8     N1       2.9453   -6.6669   -1.9686 N.pl3   1  LIG   0.3100   0.9070 
9     O1       2.7380   -7.8857   -2.0242 O.2     1  LIG  -0.2043  -0.5200 
10    O2       3.1064   -5.9142   -2.9379 O.3     1  LIG  -0.2128  -0.5200 
11    N2       0.9757   -3.5412    1.1372 N.am    1  LIG  -0.4766  -0.5470 
12    C8       0.7573   -2.8121    2.2985 C.2     1  LIG   0.6696   0.5690 
13    O3       1.3970   -2.8509    3.3442 O.2     1  LIG  -0.5840  -0.5700 
14    C9      -0.4297   -1.8935    2.1520 C.3     1  LIG  -0.1782   0.0610 
15    H1       0.3391   -3.3755    0.3616 H       1  LIG   0.3207   0.3700 
16    H2       5.8432   -7.4125    0.7138 H       1  LIG   0.0476   0.0000 
17    H3       4.6107   -8.4608   -0.0069 H       1  LIG   0.0773   0.0000 
18    H4       5.4956   -7.2697   -1.0045 H       1  LIG   0.0620   0.0000 
19    H5       4.6711   -6.0823    2.2830 H       1  LIG   0.1502   0.1500 
20    H6       2.9929   -4.4323    2.8326 H       1  LIG   0.1852   0.1500 
21    H7       1.2602   -4.8429   -1.1055 H       1  LIG   0.1622   0.1500 
22    H8      -0.5821   -1.3349    3.0797 H       1  LIG   0.0858   0.0000 
23    H9      -0.2531   -1.1854    1.3373 H       1  LIG   0.0647   0.0000 
24    H10     -1.3289   -2.4789    1.9398 H       1  LIG   0.0677   0.0000 
@<TRIPOS>BOND
1     1     2     1
2     1     16    1
3     1     17    1
4     1     18    1
5     2     7     ar
6     2     3     ar
7     3     4     ar
8     3     19    1
9     4     5     ar
10    4     20    1
11    5     6     ar
12    5     11    1
13    6     7     ar
14    6     21    1
15    7     8     1
16    8     9     2
17    8     10    1
18    11    12    am
19    11    15    1
20    12    13    2
21    12    14    1
22    14    22    1
23    14    23    1
24    14    24    1
@<TRIPOS>SUBSTRUCTURE
1   LIG    1    
 
########## Number      : 990
########## Name        : ZINC00028230
########## Description : AM1BCC_CHARGES =  -0.0000 ORIGINAL_CHARGES =   0.0000

@<TRIPOS>MOLECULE
ZINC00028230
32    33    1     0     0    
SMALL
USER_CHARGES
****
****
@<TRIPOS>ATOM
1     C1       0.3079  -10.4035   -2.0086 C.3     1  LIG  -0.1653   0.1435 
2     C2       0.2050   -8.9123   -2.1211 C.ar    1  LIG   0.5254   0.1665 
3     C3      -0.9675   -8.2613   -2.4933 C.ar    1  LIG  -0.3220   0.0862 
4     C4      -0.9514   -6.8741   -2.6267 C.ar    1  LIG   0.0455  -0.1500 
5     C5       0.2235   -6.1709   -2.3531 C.ar    1  LIG  -0.3354   0.0862 
6     C6       1.3514   -6.8705   -1.9625 C.ar    1  LIG   0.6045   0.4270 
7     N1       1.3436   -8.2254   -1.8478 N.ar    1  LIG  -0.7255  -0.6200 
8     N2       2.5491   -6.1642   -1.6768 N.am    1  LIG  -0.4379  -0.4771 
9     C7       2.6517   -4.7742   -1.7724 C.2     1  LIG   0.8139   0.6900 
10    O1       3.6983   -4.1674   -1.5210 O.2     1  LIG  -0.6236  -0.5700 
11    N3       1.4806   -4.1000   -2.1760 N.am    1  LIG  -0.4863  -0.4201 
12    C8       0.2572   -4.7070   -2.4757 C.2     1  LIG   0.7335   0.5438 
13    O2      -0.7603   -4.1133   -2.8229 O.2     1  LIG  -0.6051  -0.5700 
14    C9       1.5709   -2.6482   -2.2820 C.3     1  LIG   0.0791   0.3001 
15    C10      3.7062   -6.9566   -1.2688 C.3     1  LIG   0.0838   0.3001 
16    C11     -2.2263   -8.9671   -2.7964 C.2     1  LIG   0.6479   0.5438 
17    O3      -2.7380   -8.8269   -3.9022 O.2     1  LIG  -0.5800  -0.5700 
18    N4      -2.7348   -9.7116   -1.7484 N.am    1  LIG  -0.4421  -0.4210 
19    N5      -3.9192  -10.4120   -1.9194 N.3     1  LIG  -0.6278  -0.7290 
20    H1      -2.2890   -9.7509   -0.8365 H       1  LIG   0.3284   0.3700 
21    H2      -4.6347   -9.7389   -2.1966 H       1  LIG   0.3444   0.3600 
22    H3      -3.7956  -11.0308   -2.7216 H       1  LIG   0.3572   0.3600 
23    H4      -0.1268  -10.8925   -2.8858 H       1  LIG   0.0690   0.0000 
24    H5       1.3569  -10.7133   -1.9482 H       1  LIG   0.0727   0.0000 
25    H6      -0.1963  -10.7553   -1.1041 H       1  LIG   0.0670   0.0000 
26    H7      -1.8535   -6.3494   -2.9334 H       1  LIG   0.1814   0.1500 
27    H8       2.3586   -2.3951   -2.9991 H       1  LIG   0.0563   0.0000 
28    H9       0.6312   -2.1940   -2.6049 H       1  LIG   0.0843   0.0000 
29    H10      1.8514   -2.2407   -1.3054 H       1  LIG   0.0557   0.0000 
30    H11      3.4647   -7.5051   -0.3526 H       1  LIG   0.0566   0.0000 
31    H12      3.9663   -7.6566   -2.0694 H       1  LIG   0.0572   0.0000 
32    H13      4.5761   -6.3248   -1.0704 H       1  LIG   0.0872   0.0000 
@<TRIPOS>BOND
1     1     2     1
2     1     23    1
3     1     24    1
4     1     25    1
5     2     7     ar
6     2     3     ar
7     3     4     ar
8     3     16    1
9     4     5     ar
10    4     26    1
11    5     12    1
12    5     6     ar
13    6     7     ar
14    6     8     1
15    8     9     am
16    8     15    1
17    9     10    2
18    9     11    am
19    11    12    am
20    11    14    1
21    12    13    2
22    14    27    1
23    14    28    1
24    14    29    1
25    15    30    1
26    15    31    1
27    15    32    1
28    16    17    2
29    16    18    am
30    18    19    1
31    18    20    1
32    19    21    1
33    19    22    1
@<TRIPOS>SUBSTRUCTURE
1   LIG    1    
 
########## Number      : 991
########## Name        : ZINC00028233
########## Description : AM1BCC_CHARGES =   0.0000 ORIGINAL_CHARGES =   0.0000

@<TRIPOS>MOLECULE
ZINC00028233
20    20    1     0     0    
SMALL
USER_CHARGES
****
****
@<TRIPOS>ATOM
1     C1       6.7030   -9.7054   -0.2833 C.3     1  LIG  -0.2023   0.0610 
2     C2       5.4364   -8.9294   -0.0347 C.2     1  LIG   0.5710   0.4480 
3     O1       5.1651   -8.4956    1.0839 O.2     1  LIG  -0.5192  -0.5700 
4     C3       4.5477   -8.6931   -1.2350 C.3     1  LIG  -0.2671   0.1220 
5     C4       3.1937   -8.1093   -0.8853 C.2     1  LIG   0.6735   0.5690 
6     O2       2.2905   -8.8430   -0.4930 O.2     1  LIG  -0.5825  -0.5700 
7     N1       3.1677   -6.7320   -1.0458 N.am    1  LIG  -0.5186  -0.4940 
8     C5       2.0975   -5.8868   -0.8136 C.2     1  LIG   0.4913   0.4421 
9     N2       2.1788   -4.5850   -0.9891 N.2     1  LIG  -0.6801  -0.5653 
10    C6       0.9664   -3.9993   -0.6841 C.2     1  LIG   0.3510   0.0772 
11    C7      -0.0271   -4.8633   -0.2806 C.2     1  LIG  -0.3087  -0.1100 
12    S1       0.5783   -6.4643   -0.2832 S.3     1  LIG   0.0048  -0.0800 
13    H1       4.0085   -6.2547   -1.3565 H       1  LIG   0.3469   0.3700 
14    H2       7.2563   -9.8185    0.6532 H       1  LIG   0.0764   0.0000 
15    H3       6.4555  -10.6979   -0.6677 H       1  LIG   0.0713   0.0000 
16    H4       7.3270   -9.1671   -1.0008 H       1  LIG   0.0646   0.0000 
17    H5       5.0805   -8.0431   -1.9371 H       1  LIG   0.0965   0.0000 
18    H6       4.3723   -9.6524   -1.7349 H       1  LIG   0.1073   0.0000 
19    H7       0.8597   -2.9266   -0.7743 H       1  LIG   0.0429   0.1500 
20    H8      -1.0442   -4.6372    0.0055 H       1  LIG   0.1810   0.1500 
@<TRIPOS>BOND
1     1     2     1
2     1     14    1
3     1     15    1
4     1     16    1
5     2     3     2
6     2     4     1
7     4     5     1
8     4     17    1
9     4     18    1
10    5     6     2
11    5     7     am
12    7     8     1
13    7     13    1
14    8     12    1
15    8     9     2
16    9     10    1
17    10    11    2
18    10    19    1
19    11    12    1
20    11    20    1
@<TRIPOS>SUBSTRUCTURE
1   LIG    1    
 
########## Number      : 992
########## Name        : ZINC00028234
########## Description : AM1BCC_CHARGES =   0.0000 ORIGINAL_CHARGES =   0.0000

@<TRIPOS>MOLECULE
ZINC00028234
23    23    1     0     0    
SMALL
USER_CHARGES
****
****
@<TRIPOS>ATOM
1     C1       4.8941   -9.3760   -0.0910 C.3     1  LIG  -0.2045   0.0610 
2     C2       3.6947   -8.4982   -0.3342 C.2     1  LIG   0.5702   0.4480 
3     O1       2.5519   -8.9458   -0.2522 O.2     1  LIG  -0.5172  -0.5700 
4     C3       3.9787   -7.0471   -0.6511 C.3     1  LIG  -0.2735   0.1220 
5     C4       2.7572   -6.2696   -1.0959 C.2     1  LIG   0.6833   0.5690 
6     O2       2.3444   -6.3697   -2.2481 O.2     1  LIG  -0.5883  -0.5700 
7     N1       2.2150   -5.5130   -0.0700 N.am    1  LIG  -0.5374  -0.5470 
8     C5       1.0823   -4.6720   -0.1102 C.ar    1  LIG   0.5279   0.4270 
9     C6       0.3174   -4.4705   -1.2544 C.ar    1  LIG  -0.2569  -0.1500 
10    C7      -0.7835   -3.6165   -1.1843 C.ar    1  LIG  -0.0744  -0.1500 
11    C8      -1.0975   -2.9865    0.0109 C.ar    1  LIG  -0.2738  -0.1500 
12    C9      -0.2861   -3.2405    1.0993 C.ar    1  LIG   0.4206   0.1600 
13    N2       0.7875   -4.0618    1.0651 N.ar    1  LIG  -0.7123  -0.6200 
14    H1       2.6547   -5.5476    0.8451 H       1  LIG   0.3405   0.3700 
15    H2       4.5668  -10.3979    0.1202 H       1  LIG   0.0761   0.0000 
16    H3       5.5276   -9.3863   -0.9813 H       1  LIG   0.0635   0.0000 
17    H4       5.4553   -8.9992    0.7676 H       1  LIG   0.0694   0.0000 
18    H5       4.4345   -6.5846    0.2307 H       1  LIG   0.0929   0.0000 
19    H6       4.7093   -7.0038   -1.4667 H       1  LIG   0.1069   0.0000 
20    H7       0.5344   -4.9454   -2.2024 H       1  LIG   0.1813   0.1500 
21    H8      -1.3940   -3.4459   -2.0665 H       1  LIG   0.1404   0.1500 
22    H9      -1.9481   -2.3195    0.0875 H       1  LIG   0.1442   0.1500 
23    H10     -0.4815   -2.7767    2.0607 H       1  LIG   0.0211   0.1500 
@<TRIPOS>BOND
1     1     2     1
2     1     15    1
3     1     16    1
4     1     17    1
5     2     3     2
6     2     4     1
7     4     5     1
8     4     18    1
9     4     19    1
10    5     6     2
11    5     7     am
12    7     8     1
13    7     14    1
14    8     13    ar
15    8     9     ar
16    9     10    ar
17    9     20    1
18    10    11    ar
19    10    21    1
20    11    12    ar
21    11    22    1
22    12    13    ar
23    12    23    1
@<TRIPOS>SUBSTRUCTURE
1   LIG    1    
 
########## Number      : 993
########## Name        : ZINC00028238
########## Description : AM1BCC_CHARGES =   0.0001 ORIGINAL_CHARGES =   0.0000

@<TRIPOS>MOLECULE
ZINC00028238
30    30    1     0     0    
SMALL
USER_CHARGES
****
****
@<TRIPOS>ATOM
1     C1       7.9304   -9.7436    0.4649 C.3     1  LIG  -0.1017   0.0000 
2     C2       6.4947   -9.4756    0.8702 C.3     1  LIG   0.1401   0.2800 
3     O1       6.1934   -8.1037    0.5733 O.3     1  LIG  -0.4234  -0.4300 
4     C3       4.9311   -7.6980    0.8805 C.2     1  LIG   0.6458   0.7056 
5     O2       4.0584   -8.3964    1.3765 O.2     1  LIG  -0.5482  -0.5700 
6     C4       4.7629   -6.2597    0.5189 C.2     1  LIG  -0.0704   0.0794 
7     C5       3.5618   -5.7081    0.7765 C.2     1  LIG   0.0446  -0.1784 
8     C6       3.1852   -4.3129    0.5057 C.ar    1  LIG  -0.1471   0.0284 
9     C7       3.1302   -3.8109   -0.7999 C.ar    1  LIG  -0.0539  -0.1500 
10    C8       2.7550   -2.4839   -1.0368 C.ar    1  LIG  -0.2098  -0.1500 
11    C9       2.4228   -1.6465    0.0300 C.ar    1  LIG   0.1515   0.0825 
12    C10      2.4662   -2.1519    1.3332 C.ar    1  LIG  -0.1624  -0.1500 
13    C11      2.8406   -3.4764    1.5716 C.ar    1  LIG  -0.0650  -0.1500 
14    O3       2.0414   -0.3350   -0.0681 O.3     1  LIG  -0.3217  -0.3625 
15    C12      1.9914    0.2219   -1.3763 C.3     1  LIG   0.1109   0.2800 
16    C13      5.8426   -5.5213   -0.0502 C.1     1  LIG   0.2076   0.4921 
17    N1       6.7209   -4.9210   -0.5141 N.1     1  LIG  -0.3547  -0.5571 
18    H1       8.2076  -10.7808    0.6727 H       1  LIG   0.0479   0.0000 
19    H2       8.0726   -9.5464   -0.6028 H       1  LIG   0.0523   0.0000 
20    H3       8.6136   -9.0797    1.0048 H       1  LIG   0.0518   0.0000 
21    H4       5.8192  -10.1288    0.3070 H       1  LIG   0.0529   0.0000 
22    H5       6.3700   -9.6536    1.9439 H       1  LIG   0.0535   0.0000 
23    H6       2.7685   -6.2902    1.2420 H       1  LIG   0.1634   0.1500 
24    H7       3.3739   -4.4454   -1.6493 H       1  LIG   0.1459   0.1500 
25    H8       2.7304   -2.1395   -2.0659 H       1  LIG   0.1460   0.1500 
26    H9       2.2064   -1.5137    2.1746 H       1  LIG   0.1561   0.1500 
27    H10      2.8637   -3.8425    2.5954 H       1  LIG   0.1409   0.1500 
28    H11      1.6786    1.2664   -1.2826 H       1  LIG   0.0713   0.0000 
29    H12      2.9795    0.2116   -1.8481 H       1  LIG   0.0390   0.0000 
30    H13      1.2501   -0.2930   -1.9963 H       1  LIG   0.0369   0.0000 
@<TRIPOS>BOND
1     1     2     1
2     1     18    1
3     1     19    1
4     1     20    1
5     2     3     1
6     2     21    1
7     2     22    1
8     3     4     1
9     4     5     2
10    4     6     1
11    6     7     2
12    6     16    1
13    7     8     1
14    7     23    1
15    8     13    ar
16    8     9     ar
17    9     10    ar
18    9     24    1
19    10    11    ar
20    10    25    1
21    11    12    ar
22    11    14    1
23    12    13    ar
24    12    26    1
25    13    27    1
26    14    15    1
27    15    28    1
28    15    29    1
29    15    30    1
30    16    17    3
@<TRIPOS>SUBSTRUCTURE
1   LIG    1    
 
########## Number      : 994
########## Name        : ZINC00028240
########## Description : AM1BCC_CHARGES =  -0.0000 ORIGINAL_CHARGES =   0.0000

@<TRIPOS>MOLECULE
ZINC00028240
28    28    1     0     0    
SMALL
USER_CHARGES
****
****
@<TRIPOS>ATOM
1     C1       7.2679   -9.2144    1.7602 C.3     1  LIG  -0.1282   0.0000 
2     C2       6.0397   -9.1155    2.6443 C.3     1  LIG   0.1393   0.2800 
3     O1       5.5531   -7.7622    2.6603 O.3     1  LIG  -0.4202  -0.4300 
4     C3       4.6874   -7.4020    1.6737 C.2     1  LIG   0.6423   0.7056 
5     O2       4.2881   -8.1248    0.7720 O.2     1  LIG  -0.5373  -0.5700 
6     C4       4.2906   -5.9740    1.8514 C.2     1  LIG  -0.0289   0.0794 
7     C5       3.4394   -5.4649    0.9406 C.2     1  LIG   0.0033  -0.1784 
8     C6       2.9282   -4.0863    0.9266 C.ar    1  LIG  -0.0541   0.0284 
9     C7       2.0948   -3.6091    1.9483 C.ar    1  LIG  -0.1135  -0.1500 
10    C8       1.6081   -2.3005    1.9122 C.ar    1  LIG  -0.0652  -0.1500 
11    C9       1.9543   -1.4717    0.8413 C.ar    1  LIG  -0.1630   0.1330 
12    C10      2.7748   -1.9348   -0.1912 C.ar    1  LIG  -0.0683  -0.1500 
13    C11      3.2565   -3.2450   -0.1452 C.ar    1  LIG  -0.1167  -0.1500 
14    N1       1.4482   -0.1041    0.7985 N.pl3   1  LIG   0.3118   0.9070 
15    O3       1.4445    0.4744   -0.2967 O.2     1  LIG  -0.2023  -0.5200 
16    O4       1.0524    0.3968    1.8599 O.3     1  LIG  -0.2009  -0.5200 
17    C12      4.8167   -5.2000    2.9279 C.1     1  LIG   0.1915   0.4921 
18    N2       5.2435   -4.5689    3.8035 N.1     1  LIG  -0.3282  -0.5571 
19    H1       7.6802  -10.2271    1.7805 H       1  LIG   0.0514   0.0000 
20    H2       7.0271   -8.9553    0.7243 H       1  LIG   0.0556   0.0000 
21    H3       8.0389   -8.5118    2.0931 H       1  LIG   0.0503   0.0000 
22    H4       5.2563   -9.8100    2.3206 H       1  LIG   0.0636   0.0000 
23    H5       6.3010   -9.3752    3.6751 H       1  LIG   0.0738   0.0000 
24    H6       3.0798   -6.0712    0.1112 H       1  LIG   0.1759   0.1500 
25    H7       1.8123   -4.2517    2.7794 H       1  LIG   0.1581   0.1500 
26    H8       0.9629   -1.9599    2.7175 H       1  LIG   0.1780   0.1500 
27    H9       3.0549   -1.3035   -1.0301 H       1  LIG   0.1767   0.1500 
28    H10      3.8946   -3.6006   -0.9516 H       1  LIG   0.1552   0.1500 
@<TRIPOS>BOND
1     1     2     1
2     1     19    1
3     1     20    1
4     1     21    1
5     2     3     1
6     2     22    1
7     2     23    1
8     3     4     1
9     4     5     2
10    4     6     1
11    6     7     2
12    6     17    1
13    7     8     1
14    7     24    1
15    8     13    ar
16    8     9     ar
17    9     10    ar
18    9     25    1
19    10    11    ar
20    10    26    1
21    11    12    ar
22    11    14    1
23    12    13    ar
24    12    27    1
25    13    28    1
26    14    15    2
27    14    16    1
28    17    18    3
@<TRIPOS>SUBSTRUCTURE
1   LIG    1    
 
########## Number      : 995
########## Name        : ZINC00028242
########## Description : AM1BCC_CHARGES =   0.0002 ORIGINAL_CHARGES =   0.0000

@<TRIPOS>MOLECULE
ZINC00028242
34    34    1     0     0    
SMALL
USER_CHARGES
****
****
@<TRIPOS>ATOM
1     C1       6.4602   -9.8807    2.0090 C.3     1  LIG  -0.1287   0.0000 
2     C2       5.5330   -9.3563    3.0884 C.3     1  LIG   0.1416   0.2800 
3     O1       5.3214   -7.9447    2.9116 O.3     1  LIG  -0.4244  -0.4300 
4     C3       4.3163   -7.5676    2.0747 C.2     1  LIG   0.6482   0.7056 
5     O2       3.5784   -8.3215    1.4565 O.2     1  LIG  -0.5507  -0.5700 
6     C4       4.2442   -6.0776    2.0171 C.2     1  LIG  -0.0799   0.0794 
7     C5       3.2994   -5.5487    1.2165 C.2     1  LIG   0.0531  -0.1784 
8     C6       3.0581   -4.1140    1.0080 C.ar    1  LIG  -0.1605   0.0284 
9     C7       2.6431   -3.2810    2.0464 C.ar    1  LIG  -0.0513  -0.1500 
10    C8       2.4052   -1.9191    1.8129 C.ar    1  LIG  -0.2012  -0.1500 
11    C9       2.5620   -1.3343    0.5410 C.ar    1  LIG   0.1950   0.1000 
12    C10      2.9695   -2.2051   -0.4884 C.ar    1  LIG  -0.1958  -0.1500 
13    C11      3.2099   -3.5684   -0.2655 C.ar    1  LIG  -0.0579  -0.1500 
14    N1       2.3256    0.0207    0.3146 N.pl3   1  LIG  -0.6618  -0.8382 
15    C12      1.9091    0.9012    1.3987 C.3     1  LIG   0.1877   0.3691 
16    C13      2.4948    0.6008   -1.0116 C.3     1  LIG   0.1887   0.3691 
17    C14      5.1569   -5.2752    2.7642 C.1     1  LIG   0.2115   0.4921 
18    N2       5.8993   -4.6230    3.3729 N.1     1  LIG  -0.3611  -0.5571 
19    H1       6.6725  -10.9425    2.1619 H       1  LIG   0.0468   0.0000 
20    H2       6.0183   -9.7516    1.0159 H       1  LIG   0.0581   0.0000 
21    H3       7.4050   -9.3272    2.0115 H       1  LIG   0.0476   0.0000 
22    H4       4.5803   -9.8977    3.0956 H       1  LIG   0.0589   0.0000 
23    H5       5.9930   -9.4915    4.0724 H       1  LIG   0.0697   0.0000 
24    H6       2.6402   -6.1893    0.6333 H       1  LIG   0.1605   0.1500 
25    H7       2.4932   -3.6732    3.0498 H       1  LIG   0.1426   0.1500 
26    H8       2.0876   -1.3250    2.6666 H       1  LIG   0.1408   0.1500 
27    H9       3.1121   -1.8431   -1.5039 H       1  LIG   0.1393   0.1500 
28    H10      3.5210   -4.1902   -1.1022 H       1  LIG   0.1356   0.1500 
29    H11      1.7685    1.9323    1.0565 H       1  LIG   0.0497   0.0000 
30    H12      0.9523    0.5746    1.8210 H       1  LIG   0.0505   0.0000 
31    H13      2.6658    0.9306    2.1904 H       1  LIG   0.0243   0.0000 
32    H14      2.2691    1.6727   -1.0205 H       1  LIG   0.0484   0.0000 
33    H15      3.5290    0.4917   -1.3562 H       1  LIG   0.0308   0.0000 
34    H16      1.8186    0.1291   -1.7331 H       1  LIG   0.0441   0.0000 
@<TRIPOS>BOND
1     1     2     1
2     1     19    1
3     1     20    1
4     1     21    1
5     2     3     1
6     2     22    1
7     2     23    1
8     3     4     1
9     4     5     2
10    4     6     1
11    6     7     2
12    6     17    1
13    7     8     1
14    7     24    1
15    8     13    ar
16    8     9     ar
17    9     10    ar
18    9     25    1
19    10    11    ar
20    10    26    1
21    11    12    ar
22    11    14    1
23    12    13    ar
24    12    27    1
25    13    28    1
26    14    15    1
27    14    16    1
28    15    29    1
29    15    30    1
30    15    31    1
31    16    32    1
32    16    33    1
33    16    34    1
34    17    18    3
@<TRIPOS>SUBSTRUCTURE
1   LIG    1    
 
########## Number      : 996
########## Name        : ZINC00028244
########## Description : AM1BCC_CHARGES =   0.0001 ORIGINAL_CHARGES =   0.0000

@<TRIPOS>MOLECULE
ZINC00028244
26    26    1     0     0    
SMALL
USER_CHARGES
****
****
@<TRIPOS>ATOM
1     C1       6.8019   -9.3302   -0.8331 C.3     1  LIG  -0.1022   0.0000 
2     C2       5.3453   -9.1411   -0.4595 C.3     1  LIG   0.1407   0.2800 
3     O1       5.0615   -7.7337   -0.4587 O.3     1  LIG  -0.4229  -0.4300 
4     C3       3.7835   -7.3906   -0.1401 C.2     1  LIG   0.6434   0.7056 
5     O2       2.8837   -8.1707    0.1375 O.2     1  LIG  -0.5431  -0.5700 
6     C4       3.6364   -5.9059   -0.1801 C.2     1  LIG  -0.0463   0.0794 
7     C5       2.4223   -5.4102    0.1256 C.2     1  LIG   0.0255  -0.1784 
8     C6       2.0631   -3.9846    0.1522 C.ar    1  LIG  -0.1024   0.0284 
9     C7       2.0750   -3.2081   -1.0144 C.ar    1  LIG  -0.0911  -0.1500 
10    C8       1.7164   -1.8592   -0.9675 C.ar    1  LIG  -0.1232  -0.1500 
11    C9       1.3375   -1.2861    0.2455 C.ar    1  LIG   0.0319   0.1770 
12    C10      1.3107   -2.0508    1.4108 C.ar    1  LIG  -0.1253  -0.1500 
13    C11      1.6696   -3.3995    1.3626 C.ar    1  LIG  -0.0952  -0.1500 
14    Cl1      0.8948    0.3768    0.3039 Cl      1  LIG  -0.0814  -0.1770 
15    C12      4.7470   -5.0728   -0.5077 C.1     1  LIG   0.2002   0.4921 
16    N1       5.6501   -4.3945   -0.7748 N.1     1  LIG  -0.3408  -0.5571 
17    H1       7.0667  -10.3911   -0.8471 H       1  LIG   0.0493   0.0000 
18    H2       7.0055   -8.9016   -1.8200 H       1  LIG   0.0525   0.0000 
19    H3       7.4528   -8.8123   -0.1209 H       1  LIG   0.0528   0.0000 
20    H4       4.7034   -9.6434   -1.1914 H       1  LIG   0.0540   0.0000 
21    H5       5.1589   -9.5525    0.5386 H       1  LIG   0.0540   0.0000 
22    H6       1.6029   -6.0708    0.4032 H       1  LIG   0.1691   0.1500 
23    H7       2.3586   -3.6437   -1.9698 H       1  LIG   0.1477   0.1500 
24    H8       1.7344   -1.2706   -1.8809 H       1  LIG   0.1549   0.1500 
25    H9       1.0126   -1.6118    2.3592 H       1  LIG   0.1536   0.1500 
26    H10      1.6428   -3.9859    2.2784 H       1  LIG   0.1444   0.1500 
@<TRIPOS>BOND
1     1     2     1
2     1     17    1
3     1     18    1
4     1     19    1
5     2     3     1
6     2     20    1
7     2     21    1
8     3     4     1
9     4     5     2
10    4     6     1
11    6     7     2
12    6     15    1
13    7     8     1
14    7     22    1
15    8     13    ar
16    8     9     ar
17    9     10    ar
18    9     23    1
19    10    11    ar
20    10    24    1
21    11    12    ar
22    11    14    1
23    12    13    ar
24    12    25    1
25    13    26    1
26    15    16    3
@<TRIPOS>SUBSTRUCTURE
1   LIG    1    
 
########## Number      : 997
########## Name        : ZINC00028268
########## Description : AM1BCC_CHARGES =   0.0000 ORIGINAL_CHARGES =   0.0000

@<TRIPOS>MOLECULE
ZINC00028268
30    31    1     0     0    
SMALL
USER_CHARGES
****
****
@<TRIPOS>ATOM
1     C1       4.8982   -9.9893    0.6564 C.ar    1  LIG  -0.1021  -0.1500 
2     C2       4.9667   -9.6613    2.0090 C.ar    1  LIG  -0.1404  -0.1500 
3     C3       4.8570   -8.3296    2.4127 C.ar    1  LIG  -0.0757  -0.1500 
4     C4       4.6700   -7.3186    1.4608 C.ar    1  LIG  -0.1505   0.0862 
5     C5       4.6129   -7.6511    0.1017 C.ar    1  LIG  -0.0930  -0.1500 
6     C6       4.7242   -8.9856   -0.2954 C.ar    1  LIG  -0.1406  -0.1500 
7     C7       4.5670   -5.9136    1.9346 C.2     1  LIG   0.6495   0.5438 
8     O1       5.0878   -5.5919    2.9999 O.2     1  LIG  -0.5768  -0.5700 
9     N1       3.8524   -5.0533    1.1234 N.am    1  LIG  -0.4048  -0.4300 
10    N2       3.7207   -3.7335    1.5096 N.am    1  LIG  -0.4043  -0.4300 
11    C8       3.0060   -2.8732    0.6984 C.2     1  LIG   0.6491   0.5438 
12    O2       2.4852   -3.1949   -0.3669 O.2     1  LIG  -0.5767  -0.5700 
13    C9       2.9030   -1.4682    1.1723 C.ar    1  LIG  -0.1507   0.0862 
14    C10      2.9602   -1.1357    2.5313 C.ar    1  LIG  -0.0927  -0.1500 
15    C11      2.8488    0.1988    2.9284 C.ar    1  LIG  -0.1409  -0.1500 
16    C12      2.6748    1.2025    1.9767 C.ar    1  LIG  -0.1018  -0.1500 
17    C13      2.6062    0.8746    0.6240 C.ar    1  LIG  -0.1406  -0.1500 
18    C14      2.7159   -0.4572    0.2204 C.ar    1  LIG  -0.0755  -0.1500 
19    H1       3.3728   -5.3258    0.2712 H       1  LIG   0.3160   0.3700 
20    H2       4.2003   -3.4609    2.3618 H       1  LIG   0.3159   0.3700 
21    H3       4.9852  -11.0258    0.3433 H       1  LIG   0.1369   0.1500 
22    H4       5.1064  -10.4429    2.7506 H       1  LIG   0.1400   0.1500 
23    H5       4.9113   -8.0966    3.4733 H       1  LIG   0.1563   0.1500 
24    H6       4.5029   -6.8932   -0.6683 H       1  LIG   0.1459   0.1500 
25    H7       4.6810   -9.2420   -1.3504 H       1  LIG   0.1391   0.1500 
26    H8       3.0702   -1.8936    3.3013 H       1  LIG   0.1457   0.1500 
27    H9       2.8920    0.4552    3.9834 H       1  LIG   0.1391   0.1500 
28    H10      2.5878    2.2390    2.2897 H       1  LIG   0.1369   0.1500 
29    H11      2.4666    1.6561   -0.1175 H       1  LIG   0.1400   0.1500 
30    H12      2.6616   -0.6902   -0.8402 H       1  LIG   0.1567   0.1500 
@<TRIPOS>BOND
1     1     6     ar
2     1     2     ar
3     1     21    1
4     2     3     ar
5     2     22    1
6     3     4     ar
7     3     23    1
8     4     5     ar
9     4     7     1
10    5     6     ar
11    5     24    1
12    6     25    1
13    7     8     2
14    7     9     am
15    9     10    1
16    9     19    1
17    10    11    am
18    10    20    1
19    11    12    2
20    11    13    1
21    13    18    ar
22    13    14    ar
23    14    15    ar
24    14    26    1
25    15    16    ar
26    15    27    1
27    16    17    ar
28    16    28    1
29    17    18    ar
30    17    29    1
31    18    30    1
@<TRIPOS>SUBSTRUCTURE
1   LIG    1    
 
########## Number      : 998
########## Name        : ZINC00028269
########## Description : AM1BCC_CHARGES =   0.0002 ORIGINAL_CHARGES =  -0.0000

@<TRIPOS>MOLECULE
ZINC00028269
29    31    1     0     0    
SMALL
USER_CHARGES
****
****
@<TRIPOS>ATOM
1     C1       4.5024   -7.4676   -0.6566 C.ar    1  LIG  -0.0752  -0.1500 
2     C2       5.0128   -8.7603   -0.4838 C.ar    1  LIG  -0.2024  -0.1500 
3     C3       5.6603   -9.1255    0.6993 C.ar    1  LIG   0.1656   0.1000 
4     C4       5.7740   -8.1738    1.7151 C.ar    1  LIG  -0.2038  -0.1500 
5     C5       5.2654   -6.8812    1.5460 C.ar    1  LIG  -0.0416  -0.1500 
6     C6       4.6228   -6.5077    0.3568 C.ar    1  LIG  -0.1637   0.0530 
7     C7       4.1014   -5.1432    0.2137 C.2     1  LIG   0.4905   0.1335 
8     N1       3.4556   -4.6676   -0.9093 N.pl3   1  LIG  -0.2810   0.0332 
9     C8       3.1065   -3.3593   -0.6977 C.ar    1  LIG  -0.1082  -0.1516 
10    C9       2.4455   -2.4239   -1.4912 C.ar    1  LIG  -0.1014  -0.1500 
11    C10      2.2565   -1.1511   -0.9368 C.ar    1  LIG  -0.1632  -0.1500 
12    C11      2.7122   -0.8248    0.3490 C.ar    1  LIG   0.1107   0.1000 
13    C12      3.3678   -1.8001    1.1199 C.ar    1  LIG  -0.1423  -0.1500 
14    C13      3.5668   -3.0826    0.5803 C.ar    1  LIG   0.1091   0.2272 
15    N2       4.1742   -4.1872    1.1262 N.2     1  LIG  -0.5832  -0.5653 
16    N3       2.4906    0.4431    0.8700 N.pl3   1  LIG  -0.8098  -0.9000 
17    N4       6.1465  -10.4112    0.8739 N.pl3   1  LIG  -0.8270  -0.9000 
18    H1       3.2660   -5.1895   -1.7532 H       1  LIG   0.3018   0.2700 
19    H2       2.8474    0.6900    1.7834 H       1  LIG   0.3821   0.4000 
20    H3       2.0494    1.1579    0.3071 H       1  LIG   0.3797   0.4000 
21    H4       6.6463  -10.6589    1.7174 H       1  LIG   0.3992   0.4000 
22    H5       6.0944  -11.0849    0.1218 H       1  LIG   0.3978   0.4000 
23    H6       4.0118   -7.2400   -1.5990 H       1  LIG   0.1219   0.1500 
24    H7       4.8985   -9.4821   -1.2896 H       1  LIG   0.1339   0.1500 
25    H8       6.2626   -8.4282    2.6529 H       1  LIG   0.1371   0.1500 
26    H9       5.3790   -6.1704    2.3621 H       1  LIG   0.1611   0.1500 
27    H10      2.0912   -2.6634   -2.4874 H       1  LIG   0.1330   0.1500 
28    H11      1.7397   -0.4004   -1.5324 H       1  LIG   0.1318   0.1500 
29    H12      3.7213   -1.5741    2.1214 H       1  LIG   0.1477   0.1500 
@<TRIPOS>BOND
1     1     6     ar
2     1     2     ar
3     1     23    1
4     2     3     ar
5     2     24    1
6     3     4     ar
7     3     17    1
8     4     5     ar
9     4     25    1
10    5     6     ar
11    5     26    1
12    6     7     1
13    7     15    2
14    7     8     1
15    8     9     1
16    8     18    1
17    9     14    ar
18    9     10    ar
19    10    11    ar
20    10    27    1
21    11    12    ar
22    11    28    1
23    12    13    ar
24    12    16    1
25    13    14    ar
26    13    29    1
27    14    15    1
28    16    19    1
29    16    20    1
30    17    21    1
31    17    22    1
@<TRIPOS>SUBSTRUCTURE
1   LIG    1    
 
########## Number      : 999
########## Name        : ZINC00028270
########## Description : AM1BCC_CHARGES =   0.0001 ORIGINAL_CHARGES =   0.0000

@<TRIPOS>MOLECULE
ZINC00028270
30    31    1     0     0    
SMALL
USER_CHARGES
****
****
@<TRIPOS>ATOM
1     C1       6.1100   -9.7411   -0.8675 C.ar    1  LIG  -0.1568  -0.1500 
2     C2       4.7453   -9.7814   -0.5991 C.ar    1  LIG  -0.1043  -0.1500 
3     C3       4.0561   -8.6022   -0.3056 C.ar    1  LIG  -0.1818  -0.1500 
4     C4       4.7197   -7.3646   -0.2682 C.ar    1  LIG   0.1661   0.1000 
5     C5       6.0915   -7.3424   -0.5510 C.ar    1  LIG  -0.1777  -0.1500 
6     C6       6.7822   -8.5222   -0.8446 C.ar    1  LIG  -0.0961  -0.1500 
7     N1       3.9780   -6.1975    0.0101 N.pl3   1  LIG  -0.8482  -0.7760 
8     P1       4.5569   -4.6558    0.0820 P.3     1  LIG   1.6661   1.5232 
9     O1       5.4852   -4.1472   -0.9934 O.2     1  LIG  -0.8557  -0.7000 
10    N2       3.0741   -3.9554    0.2514 N.pl3   1  LIG  -0.8558  -0.7760 
11    C7       2.8200   -2.6048    0.5692 C.ar    1  LIG   0.1625   0.1000 
12    C8       3.8451   -1.6764    0.7942 C.ar    1  LIG  -0.1640  -0.1500 
13    C9       3.5510   -0.3509    1.1275 C.ar    1  LIG  -0.0980  -0.1500 
14    C10      2.2275    0.0643    1.2469 C.ar    1  LIG  -0.1483  -0.1500 
15    C11      1.1965   -0.8461    1.0350 C.ar    1  LIG  -0.1054  -0.1500 
16    C12      1.4911   -2.1704    0.7018 C.ar    1  LIG  -0.1684  -0.1500 
17    O2       5.2830   -4.5438    1.5343 O.3     1  LIG  -0.7908  -0.7712 
18    H1       3.0353   -6.4096    0.3223 H       1  LIG   0.4362   0.4000 
19    H2       2.2270   -4.4617    0.0134 H       1  LIG   0.4421   0.4000 
20    H3       6.1072   -5.0561    1.6654 H       1  LIG   0.4792   0.5000 
21    H4       6.6480  -10.6561   -1.0969 H       1  LIG   0.1336   0.1500 
22    H5       4.2146  -10.7289   -0.6200 H       1  LIG   0.1318   0.1500 
23    H6       2.9884   -8.6590   -0.1048 H       1  LIG   0.1255   0.1500 
24    H7       6.6529   -6.4131   -0.5450 H       1  LIG   0.1865   0.1500 
25    H8       7.8470   -8.4863   -1.0577 H       1  LIG   0.1372   0.1500 
26    H9       4.8896   -1.9633    0.7111 H       1  LIG   0.1504   0.1500 
27    H10      4.3587    0.3563    1.2946 H       1  LIG   0.1374   0.1500 
28    H11      2.0008    1.0942    1.5064 H       1  LIG   0.1353   0.1500 
29    H12      0.1622   -0.5282    1.1304 H       1  LIG   0.1330   0.1500 
30    H13      0.6683   -2.8645    0.5457 H       1  LIG   0.1285   0.1500 
@<TRIPOS>BOND
1     1     6     ar
2     1     2     ar
3     1     21    1
4     2     3     ar
5     2     22    1
6     3     4     ar
7     3     23    1
8     4     5     ar
9     4     7     1
10    5     6     ar
11    5     24    1
12    6     25    1
13    7     8     1
14    7     18    1
15    8     9     2
16    8     10    1
17    8     17    1
18    10    11    1
19    10    19    1
20    11    16    ar
21    11    12    ar
22    12    13    ar
23    12    26    1
24    13    14    ar
25    13    27    1
26    14    15    ar
27    14    28    1
28    15    16    ar
29    15    29    1
30    16    30    1
31    17    20    1
@<TRIPOS>SUBSTRUCTURE
1   LIG    1    
 
########## Number      : 1000
########## Name        : ZINC00028284
########## Description : AM1BCC_CHARGES =  -0.0002 ORIGINAL_CHARGES =   0.0000

@<TRIPOS>MOLECULE
ZINC00028284
26    26    1     0     0    
SMALL
USER_CHARGES
****
****
@<TRIPOS>ATOM
1     C1       5.5094   -6.6113    6.9635 C.3     1  LIG  -0.1036   0.0000 
2     C2       4.6593   -6.9797    5.7638 C.3     1  LIG   0.1523   0.2800 
3     O1       4.7568   -5.9190    4.8011 O.3     1  LIG  -0.4528  -0.4300 
4     C3       4.0428   -6.0966    3.6510 C.2     1  LIG   0.7668   0.7800 
5     O2       3.3488   -7.0777    3.4066 O.2     1  LIG  -0.5339  -0.5700 
6     N1       4.2261   -5.0122    2.8242 N.am    1  LIG  -0.3151  -0.3680 
7     N2       3.6067   -4.9765    1.6215 N.2     1  LIG  -0.4066  -0.5120 
8     C4       3.8501   -3.9103    0.9272 C.2     1  LIG   0.3570   0.3038 
9     C5       3.2570   -3.7007   -0.4140 C.ar    1  LIG  -0.1106   0.0862 
10    C6       2.4097   -4.6868   -0.9411 C.ar    1  LIG  -0.0816  -0.1500 
11    C7       1.8326   -4.5237   -2.2018 C.ar    1  LIG  -0.1291  -0.1500 
12    C8       2.1004   -3.3742   -2.9405 C.ar    1  LIG   0.0309   0.1770 
13    C9       2.9405   -2.3852   -2.4299 C.ar    1  LIG  -0.1270  -0.1500 
14    C10      3.5208   -2.5458   -1.1659 C.ar    1  LIG   0.0349   0.1770 
15    Cl1      4.5499   -1.2746   -0.6050 Cl      1  LIG  -0.0880  -0.1770 
16    Cl2      1.3888   -3.1727   -4.4955 Cl      1  LIG  -0.0800  -0.1770 
17    H1       4.8191   -4.2378    3.1021 H       1  LIG   0.3233   0.3700 
18    H2       5.4664   -7.3929    7.7270 H       1  LIG   0.0523   0.0000 
19    H3       6.5529   -6.4643    6.6659 H       1  LIG   0.0497   0.0000 
20    H4       5.1679   -5.6682    7.4029 H       1  LIG   0.0508   0.0000 
21    H5       5.0248   -7.9119    5.3195 H       1  LIG   0.0575   0.0000 
22    H6       3.6145   -7.1013    6.0699 H       1  LIG   0.0573   0.0000 
23    H7       4.5136   -3.1232    1.3239 H       1  LIG   0.0082   0.0600 
24    H8       2.1847   -5.5935   -0.3845 H       1  LIG   0.1684   0.1500 
25    H9       1.1789   -5.2989   -2.5931 H       1  LIG   0.1554   0.1500 
26    H10      3.1430   -1.4909   -3.0155 H       1  LIG   0.1633   0.1500 
@<TRIPOS>BOND
1     1     2     1
2     1     18    1
3     1     19    1
4     1     20    1
5     2     3     1
6     2     21    1
7     2     22    1
8     3     4     1
9     4     5     2
10    4     6     am
11    6     7     1
12    6     17    1
13    7     8     2
14    8     9     1
15    8     23    1
16    9     14    ar
17    9     10    ar
18    10    11    ar
19    10    24    1
20    11    12    ar
21    11    25    1
22    12    13    ar
23    12    16    1
24    13    14    ar
25    13    26    1
26    14    15    1
@<TRIPOS>SUBSTRUCTURE
1   LIG    1    
 
