@<TRIPOS>MOLECULE
ZINC00000041
22 24 1 0 0 
SMALL
USER_CHARGES


@<TRIPOS>ATOM
      1 C1          5.3890   -3.6090    3.0020 C.3     1     ****   -0.0810 
      2 C2          5.1610   -2.5500    1.8930 C.3     1     ****   -0.0810 
      3 C3          4.4610   -3.6540    1.0540 C.3     1     ****    0.1430 
      4 C4          4.2930   -4.4790    2.3290 C.3     1     ****    0.1430 
      5 C5          3.0130   -4.5380    3.0520 C.2     1     ****   -0.1390 
      6 C6          2.6740   -5.8070    3.2770 C.2     1     ****   -0.2100 
      7 C7          3.7210   -6.6740    2.7160 C.2     1     ****    0.6980 
      8 O1          3.7240   -7.8910    2.7490 O.2     1     ****   -0.5350 
      9 O2          4.6780   -5.8780    2.1600 O.3     1     ****   -0.3760 
     10 C8          3.3070   -3.2150    0.2600 C.2     1     ****   -0.1390 
     11 C9          3.4780   -3.5470   -1.0190 C.2     1     ****   -0.2100 
     12 C10         4.7740   -4.2280   -1.1520 C.2     1     ****    0.6990 
     13 O3          5.2420   -4.6620   -2.1890 O.2     1     ****   -0.5350 
     14 O4          5.3540   -4.2820    0.0810 O.3     1     ****   -0.3770 
     15 H1          5.1890   -3.2560    4.0180 H       1     ****    0.0620 
     16 H2          6.3890   -4.0590    2.9810 H       1     ****    0.0910 
     17 H3          4.5080   -1.7250    2.2030 H       1     ****    0.0620 
     18 H4          6.0760   -2.1310    1.4650 H       1     ****    0.0900 
     19 H5          2.4310   -3.6810    3.3580 H       1     ****    0.1640 
     20 H6          1.7960   -6.1710    3.7820 H       1     ****    0.1820 
     21 H7          2.4420   -2.6950    0.6480 H       1     ****    0.1640 
     22 H8          2.8080   -3.3610   -1.8400 H       1     ****    0.1820 
@<TRIPOS>BOND
     1  2 1 1
     2  3 2 1
     3  4 1 1
     4  4 3 1
     5  5 4 1
     6  6 5 2
     7  7 6 1
     8  8 7 2
     9  9 4 1
    10  9 7 1
    11 10 3 1
    12 11 10 2
    13 12 11 1
    14 13 12 2
    15 14 3 1
    16 14 12 1
    17 15 1 1
    18 16 1 1
    19 17 2 1
    20 18 2 1
    21 19 5 1
    22 20 6 1
    23 21 10 1
    24 22 11 1
@<TRIPOS>SUBSTRUCTURE
1     ****    1
@<TRIPOS>MOLECULE
ZINC00000710
23 25 1 0 0 
SMALL
USER_CHARGES


@<TRIPOS>ATOM
      1 C1          3.6040   -7.7640    1.0160 C.ar    1     ****   -0.0750 
      2 C2          2.5980   -6.9700    1.5670 C.ar    1     ****   -0.1480 
      3 C3          2.1600   -5.8360    0.8840 C.ar    1     ****    0.1420 
      4 C4          2.7110   -5.5140   -0.3680 C.ar    1     ****   -0.2000 
      5 C5          3.7130   -6.3090   -0.9250 C.ar    1     ****   -0.0370 
      6 C6          4.1590   -7.4300   -0.2220 C.ar    1     ****   -0.0200 
      7 CL1         5.3970   -8.4210   -0.8950 Cl      1     ****   -0.0790 
      8 C7          2.1640   -4.3570   -1.1170 C.2     1     ****    0.6730 
      9 O1          2.4380   -4.1620   -2.2920 O.2     1     ****   -0.5400 
     10 N1          1.3230   -3.6270   -0.3480 N.am    1     ****   -0.2540 
     11 C8          1.1900   -3.7320    1.0710 C.3     1     ****    0.2280 
     12 O2          1.1510   -5.1030    1.4700 O.3     1     ****   -0.3320 
     13 C9         -0.1290   -3.0540    1.3390 C.3     1     ****   -0.1130 
     14 C10        -0.0990   -1.9710    0.2770 C.3     1     ****    0.1020 
     15 O3          0.6070   -2.5290   -0.8500 O.3     1     ****   -0.2360 
     16 H1          3.9460   -8.6420    1.5590 H       1     ****    0.1550 
     17 H2          2.1650   -7.2360    2.5270 H       1     ****    0.1600 
     18 H3          4.1380   -6.0670   -1.8960 H       1     ****    0.1740 
     19 H4          1.9990   -3.2160    1.6140 H       1     ****    0.0970 
     20 H5         -0.9620   -3.7440    1.1580 H       1     ****    0.0880 
     21 H6         -0.2310   -2.6680    2.3560 H       1     ****    0.0770 
     22 H7         -1.1020   -1.6680   -0.0340 H       1     ****    0.0670 
     23 H8          0.4530   -1.0880    0.6170 H       1     ****    0.0700 
@<TRIPOS>BOND
     1  2 1 ar
     2  3 2 ar
     3  4 3 ar
     4  5 4 ar
     5  6 1 ar
     6  6 5 ar
     7  7 6 1
     8  8 4 1
     9  9 8 2
    10 10 8 1
    11 11 10 1
    12 12 3 1
    13 12 11 1
    14 13 11 1
    15 14 13 1
    16 15 10 1
    17 15 14 1
    18 16 1 1
    19 17 2 1
    20 18 5 1
    21 19 11 1
    22 20 13 1
    23 21 13 1
    24 22 14 1
    25 23 14 1
@<TRIPOS>SUBSTRUCTURE
1     ****    1
@<TRIPOS>MOLECULE
ZINC00000896
14 15 1 0 0 
SMALL
USER_CHARGES


@<TRIPOS>ATOM
      1 C1          4.6780    3.1510    2.9860 C.2     1     ****    0.3820 
      2 C2          4.4150    2.7990    4.3160 C.2     1     ****   -0.3710 
      3 C3          3.0960    2.4110    4.3300 C.2     1     ****    0.1640 
      4 N1          2.6540    2.5460    3.0490 N.pl3   1     ****    0.0030 
      5 N2          3.6020    2.9990    2.2020 N.2     1     ****   -0.5100 
      6 N3          2.3530    1.9770    5.3760 N.2     1     ****   -0.6130 
      7 C4          3.0430    1.9500    6.4790 C.2     1     ****    0.5090 
      8 N4          4.3840    2.3150    6.6090 N.am    1     ****   -0.4960 
      9 C5          5.1680    2.7650    5.5430 C.2     1     ****    0.7470 
     10 O1          6.3450    3.0910    5.6300 O.2     1     ****   -0.6130 
     11 H1          1.7300    2.3520    2.6840 H       1     ****    0.3380 
     12 H2          4.8220    2.2540    7.5220 H       1     ****    0.3400 
     13 H3          5.5980    3.5110    2.5470 H       1     ****    0.0610 
     14 H4          2.5940    1.6230    7.4300 H       1     ****    0.0580 
@<TRIPOS>BOND
     1  2 1 1
     2  3 2 ar
     3  4 3 1
     4  5 1 2
     5  5 4 1
     6  6 3 1
     7  7 6 2
     8  8 7 1
     9  9 2 1
    10  9 8 1
    11 10 9 2
    12 11 4 1
    13 12 8 1
    14 13 1 1
    15 14 7 1
@<TRIPOS>SUBSTRUCTURE
1     ****    1
@<TRIPOS>MOLECULE
ZINC00001052
15 16 1 0 0 
SMALL
USER_CHARGES


@<TRIPOS>ATOM
      1 C1         -1.3080   11.4590    8.4860 C.ar    1     ****   -0.1310 
      2 C2         -0.7330   10.7580    7.4510 C.ar    1     ****    0.0220 
      3 C3          0.6090   10.4520    7.4070 C.ar    1     ****    0.0410 
      4 C4          1.4680   10.8370    8.4130 C.ar    1     ****   -0.0630 
      5 C5          0.9220   11.5540    9.4880 C.ar    1     ****   -0.0370 
      6 C6         -0.4590   11.8640    9.5250 C.ar    1     ****    0.0500 
      7 CL1        -1.1710   12.7460   10.8320 Cl      1     ****   -0.0550 
      8 BR1         2.1150   12.0800   10.8730 Br      1     ****   -0.0460 
      9 O1          0.9540    9.7410    6.2680 O.3     1     ****   -0.2850 
     10 C7         -0.2750    9.6230    5.5970 C.2     1     ****    0.8200 
     11 O2         -0.3990    9.0470    4.5240 O.2     1     ****   -0.5620 
     12 N1         -1.2880   10.2370    6.3140 N.am    1     ****   -0.4680 
     13 H1         -2.2620   10.2910    6.0470 H       1     ****    0.3690 
     14 H2         -2.3690   11.6850    8.4920 H       1     ****    0.1660 
     15 H3          2.5220   10.5880    8.3640 H       1     ****    0.1780 
@<TRIPOS>BOND
     1  2 1 ar
     2  3 2 ar
     3  4 3 ar
     4  5 4 ar
     5  6 1 ar
     6  6 5 ar
     7  7 6 1
     8  8 5 1
     9  9 3 1
    10 10 9 1
    11 11 10 2
    12 12 2 1
    13 12 10 1
    14 13 12 1
    15 14 1 1
    16 15 4 1
@<TRIPOS>SUBSTRUCTURE
1     ****    1
@<TRIPOS>MOLECULE
ZINC00001098
17 18 1 0 0 
SMALL
USER_CHARGES


@<TRIPOS>ATOM
      1 C1          4.1940   -9.7900   -0.3090 C.ar    1     ****   -0.1630 
      2 C2          2.9600  -10.1280   -0.8700 C.ar    1     ****   -0.0690 
      3 C3          2.0120   -9.1380   -1.1240 C.ar    1     ****   -0.1500 
      4 C4          2.3100   -7.8120   -0.8140 C.ar    1     ****    0.1520 
      5 C5          3.5340   -7.4680   -0.2560 C.ar    1     ****   -0.2140 
      6 C6          4.4850   -8.4590    0.0000 C.ar    1     ****   -0.0370 
      7 C7          3.8060   -6.0590    0.0550 C.2     1     ****    0.7320 
      8 O1          4.8710   -5.7080    0.5480 O.2     1     ****   -0.5880 
      9 N1          2.7780   -5.1860   -0.2490 N.am    1     ****   -0.5980 
     10 C8          1.5480   -5.5030   -0.8050 C.2     1     ****    0.8330 
     11 O2          0.6880   -4.6580   -1.0440 O.2     1     ****   -0.5760 
     12 O3          1.3230   -6.8540   -1.0890 O.3     1     ****   -0.3040 
     13 H1          2.9400   -4.2060   -0.0430 H       1     ****    0.3590 
     14 H2          4.9300  -10.5650   -0.1120 H       1     ****    0.1480 
     15 H3          2.7390  -11.1650   -1.1080 H       1     ****    0.1460 
     16 H4          1.0540   -9.4030   -1.5600 H       1     ****    0.1650 
     17 H5          5.4500   -8.2140    0.4350 H       1     ****    0.1650 
@<TRIPOS>BOND
     1  2 1 ar
     2  3 2 ar
     3  4 3 ar
     4  5 4 ar
     5  6 1 ar
     6  6 5 ar
     7  7 5 1
     8  8 7 2
     9  9 7 1
    10 10 9 1
    11 11 10 2
    12 12 4 1
    13 12 10 1
    14 13 9 1
    15 14 1 1
    16 15 2 1
    17 16 3 1
    18 17 6 1
@<TRIPOS>SUBSTRUCTURE
1     ****    1
@<TRIPOS>MOLECULE
ZINC00001139
15 16 1 0 0 
SMALL
USER_CHARGES


@<TRIPOS>ATOM
      1 C1         -0.1040   -2.6070   -2.3630 C.ar    1     ****   -0.1290 
      2 C2         -0.3610   -1.3290   -2.8700 C.ar    1     ****   -0.0850 
      3 C3          0.6550   -0.4010   -2.7910 C.ar    1     ****    0.0430 
      4 C4          1.8760   -0.7180   -2.2340 C.ar    1     ****    0.0090 
      5 C5          2.1680   -1.9620   -1.7240 C.ar    1     ****   -0.1270 
      6 C6          1.1500   -2.9160   -1.7960 C.ar    1     ****    0.0280 
      7 CL1         1.4300   -4.5010   -1.1810 Cl      1     ****   -0.0810 
      8 N1          2.6420    0.4140   -2.3130 N.am    1     ****   -0.4700 
      9 C7          1.8770    1.3980   -2.9150 C.2     1     ****    0.8190 
     10 O1          2.2340    2.5450   -3.1510 O.2     1     ****   -0.5700 
     11 O2          0.5980    0.9110   -3.2350 O.3     1     ****   -0.2880 
     12 H1          3.5950    0.5120   -1.9890 H       1     ****    0.3670 
     13 H2         -0.8860   -3.3620   -2.4110 H       1     ****    0.1570 
     14 H3         -1.3220   -1.0830   -3.3080 H       1     ****    0.1650 
     15 H4          3.1360   -2.1850   -1.2910 H       1     ****    0.1610 
@<TRIPOS>BOND
     1  2 1 ar
     2  3 2 ar
     3  4 3 ar
     4  5 4 ar
     5  6 1 ar
     6  6 5 ar
     7  7 6 1
     8  8 4 1
     9  9 8 1
    10 10 9 2
    11 11 3 1
    12 11 9 1
    13 12 8 1
    14 13 1 1
    15 14 2 1
    16 15 5 1
@<TRIPOS>SUBSTRUCTURE
1     ****    1
@<TRIPOS>MOLECULE
ZINC00001555
15 16 1 0 0 
SMALL
USER_CHARGES


@<TRIPOS>ATOM
      1 C1          5.4870   -9.2570   -0.6580 C.2     1     ****   -0.2790 
      2 C2          4.4380  -10.1910   -0.4020 C.2     1     ****    0.2980 
      3 N1          3.4440   -9.6860    0.3530 N.2     1     ****   -0.4850 
      4 N2          3.8800   -8.4480    0.5600 N.pl3   1     ****    0.0470 
      5 C3          5.0660   -8.1380   -0.0040 C.2     1     ****    0.0270 
      6 N3          5.3890   -6.8720    0.2780 N.pl3   1     ****   -0.6390 
      7 C4          4.3430   -6.2560    1.1040 C.3     1     ****    0.1310 
      8 C5          3.2780   -7.3630    1.3040 C.3     1     ****    0.0350 
      9 H1          6.2190   -6.3680   -0.0110 H       1     ****    0.3830 
     10 H2          6.3920   -9.4020   -1.2280 H       1     ****    0.1700 
     11 H3          4.3650  -11.2160   -0.7380 H       1     ****    0.0410 
     12 H4          4.7540   -5.9300    2.0640 H       1     ****    0.0770 
     13 H5          3.9130   -5.3870    0.5940 H       1     ****    0.0510 
     14 H6          2.3160   -7.1130    0.8520 H       1     ****    0.0700 
     15 H7          3.1720   -7.6650    2.3490 H       1     ****    0.0710 
@<TRIPOS>BOND
     1  2 1 1
     2  3 2 2
     3  4 3 1
     4  5 1 2
     5  5 4 1
     6  6 5 1
     7  7 6 1
     8  8 4 1
     9  8 7 1
    10  9 6 1
    11 10 1 1
    12 11 2 1
    13 12 7 1
    14 13 7 1
    15 14 8 1
    16 15 8 1
@<TRIPOS>SUBSTRUCTURE
1     ****    1
@<TRIPOS>MOLECULE
ZINC00001621
18 18 1 0 0 
SMALL
USER_CHARGES


@<TRIPOS>ATOM
      1 C1          2.5530   -8.4700   -1.2990 C.3     1     ****    0.0260 
      2 C2          2.4040   -7.0140   -1.7710 C.3     1     ****    0.0260 
      3 C3          2.1300   -6.0530   -0.6010 C.3     1     ****    0.0260 
      4 C4          3.1760   -6.1930    0.5180 C.3     1     ****    0.0260 
      5 C5          3.3260   -7.6490    0.9900 C.3     1     ****    0.0260 
      6 C6          3.6000   -8.6100   -0.1800 C.3     1     ****    0.0260 
      7 CL1         3.6150  -10.3120    0.4250 Cl      1     ****   -0.1310 
      8 CL2         4.6700   -7.7600    2.1910 Cl      1     ****   -0.1310 
      9 CL3         2.7110   -5.1480    1.9160 Cl      1     ****   -0.1310 
     10 CL4         2.1150   -4.3510   -1.2070 Cl      1     ****   -0.1310 
     11 CL5         1.0600   -6.9020   -2.9730 Cl      1     ****   -0.1310 
     12 CL6         3.0190   -9.5150   -2.6970 Cl      1     ****   -0.1310 
     13 H1          1.5840   -8.8450   -0.9460 H       1     ****    0.1050 
     14 H2          3.3140   -6.7020   -2.2990 H       1     ****    0.1050 
     15 H3          1.1280   -6.2430   -0.1950 H       1     ****    0.1050 
     16 H4          4.1460   -5.8180    0.1640 H       1     ****    0.1050 
     17 H5          2.4160   -7.9610    1.5170 H       1     ****    0.1050 
     18 H6          4.6010   -8.4200   -0.5870 H       1     ****    0.1050 
@<TRIPOS>BOND
     1  2 1 1
     2  3 2 1
     3  4 3 1
     4  5 4 1
     5  6 1 1
     6  6 5 1
     7  7 6 1
     8  8 5 1
     9  9 4 1
    10 10 3 1
    11 11 2 1
    12 12 1 1
    13 13 1 1
    14 14 2 1
    15 15 3 1
    16 16 4 1
    17 17 5 1
    18 18 6 1
@<TRIPOS>SUBSTRUCTURE
1     ****    1
@<TRIPOS>MOLECULE
ZINC00001738
36 40 1 0 0 
SMALL
USER_CHARGES


@<TRIPOS>ATOM
      1 C1          3.1890    2.7110   -8.8140 C.ar    1     ****   -0.1180 
      2 C2          2.0970    1.8720   -9.0140 C.ar    1     ****   -0.1260 
      3 C3          1.1090    1.7690   -8.0350 C.ar    1     ****   -0.1190 
      4 C4          1.1990    2.5090   -6.8450 C.ar    1     ****   -0.1040 
      5 C5          2.3030    3.3570   -6.6440 C.ar    1     ****   -0.0620 
      6 C6          3.2940    3.4470   -7.6350 C.ar    1     ****   -0.1230 
      7 C7          2.4660    4.1560   -5.3740 C.3     1     ****    0.0160 
      8 C8          1.2560    4.1640   -4.5040 C.2     1     ****   -0.0140 
      9 C9          0.9380    4.9130   -3.3860 C.2     1     ****   -0.2180 
     10 C10        -0.3470    4.5110   -2.9500 C.2     1     ****   -0.2100 
     11 C11        -0.7890    3.5240   -3.8000 C.2     1     ****   -0.0680 
     12 N1          0.1940    3.3230   -4.7360 N.pl3   1     ****   -0.0590 
     13 C12         0.1190    2.3420   -5.8090 C.3     1     ****    0.0830 
     14 C13        -1.0120    5.0810   -1.8030 C.2     1     ****    0.6180 
     15 O1         -2.1220    4.7300   -1.4270 O.2     1     ****   -0.5450 
     16 C14        -0.2390    6.1460   -1.0930 C.ar    1     ****   -0.1220 
     17 C15        -0.8160    6.7510    0.0300 C.ar    1     ****   -0.0930 
     18 C16        -0.1250    7.7490    0.7190 C.ar    1     ****   -0.1210 
     19 C17         1.1420    8.1470    0.2940 C.ar    1     ****   -0.1210 
     20 C18         1.7280    7.5510   -0.8240 C.ar    1     ****   -0.0930 
     21 C19         1.0450    6.5490   -1.5240 C.ar    1     ****   -0.1210 
     22 C20         1.7090    5.9360   -2.7160 C.2     1     ****    0.6200 
     23 O2          2.8230    6.2870   -3.0800 O.2     1     ****   -0.5540 
     24 H1          3.9600    2.7900   -9.5740 H       1     ****    0.1380 
     25 H2          2.0150    1.2950   -9.9310 H       1     ****    0.1380 
     26 H3          0.2660    1.1030   -8.2030 H       1     ****    0.1340 
     27 H4          4.1550    4.0940   -7.4880 H       1     ****    0.1410 
     28 H5          3.3080    3.7430   -4.8060 H       1     ****    0.0880 
     29 H6          2.7110    5.1910   -5.6430 H       1     ****    0.0970 
     30 H7         -1.7070    2.9510   -3.8170 H       1     ****    0.1870 
     31 H8         -0.8680    2.4560   -6.2720 H       1     ****    0.0700 
     32 H9          0.1990    1.3550   -5.3390 H       1     ****    0.0680 
     33 H10        -1.8020    6.4590    0.3820 H       1     ****    0.1590 
     34 H11        -0.5760    8.2170    1.5900 H       1     ****    0.1380 
     35 H12         1.6750    8.9240    0.8340 H       1     ****    0.1380 
     36 H13         2.7160    7.8800   -1.1340 H       1     ****    0.1580 
@<TRIPOS>BOND
     1  2 1 ar
     2  3 2 ar
     3  4 3 ar
     4  5 4 ar
     5  6 1 ar
     6  6 5 ar
     7  7 5 1
     8  8 7 1
     9  9 8 2
    10 10 9 ar
    11 11 10 2
    12 12 8 ar
    13 12 11 1
    14 13 4 1
    15 13 12 1
    16 14 10 1
    17 15 14 2
    18 16 14 1
    19 17 16 ar
    20 18 17 ar
    21 19 18 ar
    22 20 19 ar
    23 21 16 ar
    24 21 20 ar
    25 22 9 1
    26 22 21 1
    27 23 22 2
    28 24 1 1
    29 25 2 1
    30 26 3 1
    31 27 6 1
    32 28 7 1
    33 29 7 1
    34 30 11 1
    35 31 13 1
    36 32 13 1
    37 33 17 1
    38 34 18 1
    39 35 19 1
    40 36 20 1
@<TRIPOS>SUBSTRUCTURE
1     ****    1
@<TRIPOS>MOLECULE
ZINC00001905
20 21 1 0 0 
SMALL
USER_CHARGES


@<TRIPOS>ATOM
      1 C1          5.3580   -6.8050   -1.2660 C.3     1     ****   -0.0850 
      2 C2          4.9700   -7.5910   -0.0110 C.3     1     ****   -0.0850 
      3 C3          5.2600   -9.0860   -0.1020 C.3     1     ****   -0.1060 
      4 C4          4.2310   -9.8390   -0.8690 C.2     1     ****    0.3910 
      5 N1          3.7930  -11.0560   -0.6110 N.2     1     ****   -0.3830 
      6 N2          2.8500  -11.3370   -1.5690 N.2     1     ****   -0.0510 
      7 N3          2.7040  -10.3210   -2.4060 N.2     1     ****   -0.1980 
      8 N4          3.5710   -9.3870   -1.9800 N.pl3   1     ****   -0.0740 
      9 C5          3.6620   -8.1190   -2.6660 C.3     1     ****    0.0520 
     10 C6          5.0410   -7.4720   -2.6060 C.3     1     ****   -0.0980 
     11 H1          6.4350   -6.5960   -1.2370 H       1     ****    0.0500 
     12 H2          4.8610   -5.8280   -1.2230 H       1     ****    0.0480 
     13 H3          5.5290   -7.1700    0.8340 H       1     ****    0.0560 
     14 H4          3.9080   -7.4240    0.2140 H       1     ****    0.0530 
     15 H5          6.2510   -9.2660   -0.5320 H       1     ****    0.0720 
     16 H6          5.2820   -9.4940    0.9170 H       1     ****    0.0860 
     17 H7          3.4100   -8.3100   -3.7160 H       1     ****    0.0820 
     18 H8          2.8900   -7.4640   -2.2480 H       1     ****    0.0650 
     19 H9          5.1090   -6.7050   -3.3870 H       1     ****    0.0620 
     20 H10         5.8150   -8.2140   -2.8390 H       1     ****    0.0610 
@<TRIPOS>BOND
     1  2 1 1
     2  3 2 1
     3  4 3 1
     4  5 4 2
     5  6 5 1
     6  7 6 2
     7  8 4 1
     8  8 7 1
     9  9 8 1
    10 10 1 1
    11 10 9 1
    12 11 1 1
    13 12 1 1
    14 13 2 1
    15 14 2 1
    16 15 3 1
    17 16 3 1
    18 17 9 1
    19 18 9 1
    20 19 10 1
    21 20 10 1
@<TRIPOS>SUBSTRUCTURE
1     ****    1
@<TRIPOS>MOLECULE
ZINC00002037
19 20 1 0 0 
SMALL
USER_CHARGES


@<TRIPOS>ATOM
      1 C1          5.9010   -9.6770    0.0030 C.3     1     ****   -0.0930 
      2 C2          4.9950  -10.9090   -0.1190 C.3     1     ****   -0.1690 
      3 C3          3.7620  -10.3690   -0.8170 C.2     1     ****    0.6980 
      4 O1          2.6700  -10.9100   -0.8560 O.2     1     ****   -0.5490 
      5 N1          4.1660   -9.1730   -1.4320 N.am    1     ****   -0.4920 
      6 C4          5.5580   -8.8890   -1.2430 C.3     1     ****    0.0600 
      7 C5          5.5930   -7.3760   -1.1870 C.3     1     ****   -0.0920 
      8 C6          4.4680   -6.9780   -2.1530 C.3     1     ****   -0.1690 
      9 C7          3.4580   -8.0980   -1.9920 C.2     1     ****    0.6980 
     10 O2          2.2870   -8.0560   -2.3320 O.2     1     ****   -0.5500 
     11 H1          6.9620   -9.9370    0.0620 H       1     ****    0.0630 
     12 H2          5.6370   -9.1190    0.9100 H       1     ****    0.0580 
     13 H3          5.4500  -11.6800   -0.7490 H       1     ****    0.0860 
     14 H4          4.7420  -11.3220    0.8600 H       1     ****    0.0860 
     15 H5          6.0970   -9.2700   -2.1200 H       1     ****    0.0750 
     16 H6          5.3550   -7.0110   -0.1800 H       1     ****    0.0580 
     17 H7          6.5620   -6.9620   -1.4770 H       1     ****    0.0630 
     18 H8          4.0300   -6.0140   -1.8860 H       1     ****    0.0860 
     19 H9          4.8170   -6.9620   -3.1900 H       1     ****    0.0860 
@<TRIPOS>BOND
     1  2 1 1
     2  3 2 1
     3  4 3 2
     4  5 3 1
     5  6 1 1
     6  6 5 1
     7  7 6 1
     8  8 7 1
     9  9 5 1
    10  9 8 1
    11 10 9 2
    12 11 1 1
    13 12 1 1
    14 13 2 1
    15 14 2 1
    16 15 6 1
    17 16 7 1
    18 17 7 1
    19 18 8 1
    20 19 8 1
@<TRIPOS>SUBSTRUCTURE
1     ****    1
@<TRIPOS>MOLECULE
ZINC00002070
26 28 1 0 0 
SMALL
USER_CHARGES


@<TRIPOS>ATOM
      1 C1          6.0120   -7.1580   -1.1840 C.ar    1     ****   -0.1170 
      2 C2          4.8160   -6.8690   -1.8350 C.ar    1     ****   -0.1330 
      3 C3          3.9250   -5.9360   -1.2920 C.ar    1     ****    0.1440 
      4 C4          4.2040   -5.3030   -0.0690 C.ar    1     ****   -0.1660 
      5 C5          5.4220   -5.5930    0.5690 C.ar    1     ****   -0.1200 
      6 C6          6.3070   -6.5130    0.0100 C.ar    1     ****    0.0960 
      7 F1          7.4600   -6.7820    0.6370 F       1     ****   -0.1350 
      8 C7          3.2260   -4.3150    0.5270 C.3     1     ****    0.0690 
      9 C8          1.8650   -4.4210   -0.1710 C.3     1     ****   -0.1050 
     10 C9          2.0680   -4.5340   -1.6720 C.3     1     ****    0.1270 
     11 O1          2.7800   -5.7230   -2.0170 O.3     1     ****   -0.3180 
     12 C10         3.0040   -4.5190    2.0300 C.2     1     ****    0.6980 
     13 O2          2.6000   -5.5350    2.5730 O.2     1     ****   -0.5600 
     14 N1          3.3460   -3.3340    2.6460 N.am    1     ****   -0.6140 
     15 C11         3.7920   -2.3910    1.7440 C.2     1     ****    0.7800 
     16 O3          4.1750   -1.2600    2.0030 O.2     1     ****   -0.5960 
     17 N2          3.7380   -2.9690    0.4740 N.am    1     ****   -0.5140 
     18 H1          3.2920   -3.1780    3.6440 H       1     ****    0.3610 
     19 H2          4.0320   -2.4890   -0.3700 H       1     ****    0.3230 
     20 H3          6.7080   -7.8760   -1.6050 H       1     ****    0.1570 
     21 H4          4.5830   -7.3660   -2.7730 H       1     ****    0.1610 
     22 H5          5.6930   -5.1120    1.5050 H       1     ****    0.1540 
     23 H6          1.3330   -5.3170    0.1770 H       1     ****    0.0890 
     24 H7          1.2290   -3.5580    0.0630 H       1     ****    0.0830 
     25 H8          1.0940   -4.5860   -2.1700 H       1     ****    0.0840 
     26 H9          2.5950   -3.6640   -2.0840 H       1     ****    0.0530 
@<TRIPOS>BOND
     1  2 1 ar
     2  3 2 ar
     3  4 3 ar
     4  5 4 ar
     5  6 1 ar
     6  6 5 ar
     7  7 6 1
     8  8 4 1
     9  9 8 1
    10 10 9 1
    11 11 3 1
    12 11 10 1
    13 12 8 1
    14 13 12 2
    15 14 12 1
    16 15 14 1
    17 16 15 2
    18 17 8 1
    19 17 15 1
    20 18 14 1
    21 19 17 1
    22 20 1 1
    23 21 2 1
    24 22 5 1
    25 23 9 1
    26 24 9 1
    27 25 10 1
    28 26 10 1
@<TRIPOS>SUBSTRUCTURE
1     ****    1
@<TRIPOS>MOLECULE
ZINC00005588
25 27 1 0 0 
SMALL
USER_CHARGES


@<TRIPOS>ATOM
      1 C1         -2.3750    0.5260    2.1610 C.ar    1     ****   -0.1200 
      2 C2         -1.1070   -0.0350    2.0620 C.ar    1     ****   -0.1150 
      3 C3         -0.0450    0.7310    1.5830 C.ar    1     ****   -0.0980 
      4 C4         -0.2410    2.0660    1.2010 C.ar    1     ****   -0.0100 
      5 C5         -1.5110    2.6400    1.3200 C.ar    1     ****   -0.0840 
      6 C6         -2.5790    1.8560    1.7920 C.ar    1     ****   -0.0830 
      7 C7         -1.7800    4.0640    0.9760 C.2     1     ****    0.4390 
      8 S1         -2.5290    5.1140    2.0650 S.2     1     ****   -0.4630 
      9 N1         -1.5240    4.5300   -0.3000 N.am    1     ****   -0.3970 
     10 C8         -0.6730    4.0320   -1.3100 C.ar    1     ****    0.0700 
     11 C9         -1.0000    4.3940   -2.6270 C.ar    1     ****   -0.1580 
     12 C10        -0.2180    3.9720   -3.7020 C.ar    1     ****   -0.0930 
     13 C11         0.9180    3.2050   -3.4720 C.ar    1     ****   -0.1440 
     14 C12         1.2810    2.8770   -2.1670 C.ar    1     ****   -0.0730 
     15 C13         0.4980    3.2920   -1.0770 C.ar    1     ****   -0.0530 
     16 S2          1.1430    2.9680    0.5560 S.3     1     ****   -0.1240 
     17 H1         -2.0550    5.3590   -0.5560 H       1     ****    0.3430 
     18 H2         -3.2070   -0.0700    2.5260 H       1     ****    0.1410 
     19 H3         -0.9450   -1.0700    2.3510 H       1     ****    0.1390 
     20 H4          0.9370    0.2680    1.5030 H       1     ****    0.1490 
     21 H5         -3.5830    2.2640    1.8730 H       1     ****    0.1590 
     22 H6         -1.8850    4.9940   -2.8310 H       1     ****    0.1430 
     23 H7         -0.4960    4.2450   -4.7160 H       1     ****    0.1400 
     24 H8          1.5330    2.8790   -4.3060 H       1     ****    0.1420 
     25 H9          2.1950    2.3090   -2.0100 H       1     ****    0.1500 
@<TRIPOS>BOND
     1  2 1 ar
     2  3 2 ar
     3  4 3 ar
     4  5 4 ar
     5  6 1 ar
     6  6 5 ar
     7  7 5 1
     8  8 7 2
     9  9 7 1
    10 10 9 1
    11 11 10 ar
    12 12 11 ar
    13 13 12 ar
    14 14 13 ar
    15 15 10 ar
    16 15 14 ar
    17 16 4 1
    18 16 15 1
    19 17 9 1
    20 18 1 1
    21 19 2 1
    22 20 3 1
    23 21 6 1
    24 22 11 1
    25 23 12 1
    26 24 13 1
    27 25 14 1
@<TRIPOS>SUBSTRUCTURE
1     ****    1
@<TRIPOS>MOLECULE
ZINC00006256
30 34 1 0 0 
SMALL
USER_CHARGES


@<TRIPOS>ATOM
      1 C1          5.9790   -9.1660    1.9700 C.ar    1     ****   -0.1050 
      2 C2          5.0020   -9.2840    0.9950 C.ar    1     ****   -0.1370 
      3 C3          4.1560   -8.2120    0.7500 C.ar    1     ****   -0.0760 
      4 C4          4.2920   -7.0200    1.4850 C.ar    1     ****   -0.1580 
      5 C5          5.2710   -6.8500    2.4890 C.ar    1     ****    0.0130 
      6 C6          6.1080   -7.9760    2.6980 C.ar    1     ****   -0.1260 
      7 C7          5.3660   -5.6020    3.2140 C.ar    1     ****   -0.0090 
      8 C8          4.4670   -4.5400    2.9140 C.ar    1     ****   -0.1160 
      9 C9          4.5080   -3.2850    3.5930 C.ar    1     ****   -0.0180 
     10 C10         3.5980   -2.2790    3.2540 C.ar    1     ****   -0.2060 
     11 C11         2.6710   -2.5310    2.2580 C.ar    1     ****    0.3800 
     12 N1          2.5900   -3.6950    1.5880 N.ar    1     ****   -0.6050 
     13 C12         3.4810   -4.6570    1.9320 C.ar    1     ****    0.3670 
     14 C13         3.3570   -5.9130    1.1740 C.2     1     ****    0.4790 
     15 O1          2.4970   -6.0310    0.3100 O.2     1     ****   -0.4940 
     16 C14         5.4550   -3.0630    4.5930 C.ar    1     ****   -0.1150 
     17 C15         6.3270   -4.0820    4.8900 C.ar    1     ****    0.0780 
     18 C16         6.2910   -5.2980    4.2350 C.ar    1     ****    0.0910 
     19 O2          7.2630   -6.1280    4.7220 O.3     1     ****   -0.3340 
     20 C17         7.8910   -5.3130    5.7260 C.3     1     ****    0.3210 
     21 O3          7.3010   -4.0090    5.8390 O.3     1     ****   -0.3290 
     22 H1          6.6480   -9.9980    2.1730 H       1     ****    0.1370 
     23 H2          4.8990  -10.2050    0.4290 H       1     ****    0.1400 
     24 H3          3.3920   -8.3140   -0.0180 H       1     ****    0.1600 
     25 H4          6.8970   -7.9640    3.4430 H       1     ****    0.1560 
     26 H5          3.6040   -1.3140    3.7520 H       1     ****    0.1490 
     27 H6          1.9480   -1.7770    1.9660 H       1     ****    0.0320 
     28 H7          5.5120   -2.1190    5.1280 H       1     ****    0.1650 
     29 H8          7.8110   -5.8220    6.6930 H       1     ****    0.0800 
     30 H9          8.9520   -5.2000    5.4750 H       1     ****    0.0800 
@<TRIPOS>BOND
     1  2 1 ar
     2  3 2 ar
     3  4 3 ar
     4  5 4 ar
     5  6 1 ar
     6  6 5 ar
     7  7 5 1
     8  8 7 ar
     9  9 8 ar
    10 10 9 ar
    11 11 10 ar
    12 12 11 ar
    13 13 8 ar
    14 13 12 ar
    15 14 4 1
    16 14 13 1
    17 15 14 2
    18 16 9 ar
    19 17 16 ar
    20 18 7 ar
    21 18 17 ar
    22 19 18 1
    23 20 19 1
    24 21 17 1
    25 21 20 1
    26 22 1 1
    27 23 2 1
    28 24 3 1
    29 25 6 1
    30 26 10 1
    31 27 11 1
    32 28 16 1
    33 29 20 1
    34 30 20 1
@<TRIPOS>SUBSTRUCTURE
1     ****    1
@<TRIPOS>MOLECULE
ZINC00006892
28 31 1 0 0 
SMALL
USER_CHARGES


@<TRIPOS>ATOM
      1 C1          6.3290   -8.6260   -0.1350 C.ar    1     ****   -0.1550 
      2 C2          5.1040   -9.2460    0.0980 C.ar    1     ****   -0.1100 
      3 C3          3.9440   -8.4930    0.2940 C.ar    1     ****   -0.1450 
      4 C4          4.0610   -7.0990    0.2510 C.ar    1     ****   -0.0360 
      5 C5          5.2720   -6.4480    0.0300 C.ar    1     ****   -0.0800 
      6 C6          6.4280   -7.2310   -0.1750 C.ar    1     ****   -0.0830 
      7 C7          5.0080   -5.0390    0.0510 C.2     1     ****   -0.1360 
      8 C8          3.6530   -4.8640    0.3090 C.2     1     ****    0.0080 
      9 N1          3.1020   -6.1260    0.3890 N.pl3   1     ****   -0.1760 
     10 C9          3.0580   -3.5820    0.4180 C.ar    1     ****   -0.0460 
     11 C10         1.6520   -3.4850    0.4710 C.ar    1     ****   -0.1070 
     12 C11         1.0290   -2.2400    0.5750 C.ar    1     ****   -0.1380 
     13 C12         1.7920   -1.0790    0.6410 C.ar    1     ****   -0.1090 
     14 C13         3.1850   -1.1550    0.6110 C.ar    1     ****   -0.1220 
     15 C14         3.8310   -2.3950    0.4980 C.ar    1     ****    0.0240 
     16 S1          5.6210   -2.3970    0.5890 S.3     1     ****   -0.1700 
     17 C15         5.9950   -3.9650   -0.2380 C.3     1     ****    0.0520 
     18 H1          2.1260   -6.3170    0.5630 H       1     ****    0.3010 
     19 H2          7.2190   -9.2310   -0.2890 H       1     ****    0.1310 
     20 H3          5.0480  -10.3310    0.1240 H       1     ****    0.1310 
     21 H4          2.9880   -8.9760    0.4680 H       1     ****    0.1340 
     22 H5          7.3910   -6.7630   -0.3600 H       1     ****    0.1340 
     23 H6          1.0190   -4.3670    0.4180 H       1     ****    0.1260 
     24 H7         -0.0560   -2.1780    0.6060 H       1     ****    0.1350 
     25 H8          1.3040   -0.1120    0.7270 H       1     ****    0.1360 
     26 H9          3.7580   -0.2330    0.6870 H       1     ****    0.1450 
     27 H10         7.0010   -4.2680    0.0700 H       1     ****    0.0840 
     28 H11         6.0230   -3.7850   -1.3180 H       1     ****    0.0730 
@<TRIPOS>BOND
     1  2 1 ar
     2  3 2 ar
     3  4 3 ar
     4  5 4 ar
     5  6 1 ar
     6  6 5 ar
     7  7 5 1
     8  8 7 ar
     9  9 4 1
    10  9 8 1
    11 10 8 1
    12 11 10 ar
    13 12 11 ar
    14 13 12 ar
    15 14 13 ar
    16 15 10 ar
    17 15 14 ar
    18 16 15 1
    19 17 7 1
    20 17 16 1
    21 18 9 1
    22 19 1 1
    23 20 2 1
    24 21 3 1
    25 22 6 1
    26 23 11 1
    27 24 12 1
    28 25 13 1
    29 26 14 1
    30 27 17 1
    31 28 17 1
@<TRIPOS>SUBSTRUCTURE
1     ****    1
@<TRIPOS>MOLECULE
ZINC00008115
32 36 1 0 0 
SMALL
USER_CHARGES


@<TRIPOS>ATOM
      1 C1          0.5920   -5.8800   -6.1160 C.ar    1     ****   -0.1160 
      2 C2          0.1340   -6.5260   -4.9800 C.ar    1     ****   -0.1250 
      3 C3          0.5810   -6.1120   -3.7270 C.ar    1     ****   -0.1490 
      4 C4          1.4810   -5.0610   -3.5780 C.ar    1     ****    0.3830 
      5 C5          1.9610   -4.3880   -4.7250 C.ar    1     ****   -0.1210 
      6 C6          1.4940   -4.8240   -5.9910 C.ar    1     ****   -0.1140 
      7 C7          2.8890   -3.3080   -4.5300 C.ar    1     ****    0.0260 
      8 C8          3.4470   -2.5510   -5.5720 C.ar    1     ****   -0.2360 
      9 C9          4.3300   -1.5350   -5.2680 C.ar    1     ****    0.4100 
     10 N1          4.7020   -1.2100   -4.0140 N.ar    1     ****   -0.6650 
     11 C10         4.1930   -1.9070   -2.9800 C.ar    1     ****    0.4990 
     12 C11         3.2830   -2.9620   -3.2190 C.ar    1     ****   -0.2510 
     13 C12         2.7300   -3.7120   -2.1860 C.ar    1     ****    0.3920 
     14 N2          1.8570   -4.7300   -2.3380 N.ar    1     ****   -0.5940 
     15 C13         3.0960   -3.4070   -0.7890 C.2     1     ****    0.4770 
     16 O1          2.6240   -4.0510    0.1380 O.2     1     ****   -0.4880 
     17 C14         4.0500   -2.3000   -0.5530 C.ar    1     ****   -0.1520 
     18 C15         4.5630   -1.5910   -1.6590 C.ar    1     ****   -0.1100 
     19 C16         5.4680   -0.5480   -1.3690 C.ar    1     ****   -0.1000 
     20 C17         5.8370   -0.2320   -0.0570 C.ar    1     ****   -0.1120 
     21 C18         5.3100   -0.9530    1.0090 C.ar    1     ****   -0.1300 
     22 C19         4.4150   -1.9890    0.7650 C.ar    1     ****   -0.0810 
     23 H1          0.2510   -6.1930   -7.0990 H       1     ****    0.1390 
     24 H2         -0.5690   -7.3500   -5.0630 H       1     ****    0.1410 
     25 H3          0.2110   -6.6310   -2.8450 H       1     ****    0.1590 
     26 H4          1.8260   -4.3460   -6.9080 H       1     ****    0.1360 
     27 H5          3.2130   -2.7330   -6.6150 H       1     ****    0.1500 
     28 H6          4.7780   -0.9330   -6.0520 H       1     ****    0.0280 
     29 H7          5.9060    0.0440   -2.1720 H       1     ****    0.1610 
     30 H8          6.5360    0.5790    0.1280 H       1     ****    0.1390 
     31 H9          5.5970   -0.7080    2.0270 H       1     ****    0.1410 
     32 H10         4.0110   -2.5450    1.6070 H       1     ****    0.1610 
@<TRIPOS>BOND
     1  2 1 ar
     2  3 2 ar
     3  4 3 ar
     4  5 4 ar
     5  6 1 ar
     6  6 5 ar
     7  7 5 ar
     8  8 7 ar
     9  9 8 ar
    10 10 9 ar
    11 11 10 ar
    12 12 7 ar
    13 12 11 ar
    14 13 12 ar
    15 14 4 ar
    16 14 13 ar
    17 15 13 1
    18 16 15 2
    19 17 15 1
    20 18 11 1
    21 18 17 ar
    22 19 18 ar
    23 20 19 ar
    24 21 20 ar
    25 22 17 ar
    26 22 21 ar
    27 23 1 1
    28 24 2 1
    29 25 3 1
    30 26 6 1
    31 27 8 1
    32 28 9 1
    33 29 19 1
    34 30 20 1
    35 31 21 1
    36 32 22 1
@<TRIPOS>SUBSTRUCTURE
1     ****    1
@<TRIPOS>MOLECULE
ZINC00008634
32 36 1 0 0 
SMALL
USER_CHARGES


@<TRIPOS>ATOM
      1 C1         -0.6360    2.1240   -0.3320 C.3     1     ****   -0.1000 
      2 C2          0.5590    1.3680    0.3050 C.3     1     ****   -0.1070 
      3 C3          1.0510    0.5750   -0.8390 C.2     1     ****    0.3950 
      4 N1          2.1330   -0.1020   -1.1320 N.2     1     ****   -0.5880 
      5 C4          1.8770   -0.5800   -2.4050 C.2     1     ****    0.2790 
      6 C5          0.6200   -0.1790   -2.8730 C.2     1     ****   -0.2360 
      7 N2          0.1350    0.5460   -1.8480 N.pl3   1     ****   -0.1680 
      8 C6         -1.0690    1.2940   -1.5560 C.3     1     ****    0.0410 
      9 C7          0.0320   -0.4970   -4.1540 C.2     1     ****    0.6550 
     10 O1         -1.0730   -0.1360   -4.5390 O.2     1     ****   -0.5370 
     11 C8          0.9590   -1.3110   -4.9070 C.2     1     ****   -0.2360 
     12 C9          2.2240   -1.7410   -4.4920 C.2     1     ****    0.2790 
     13 N3          2.8530   -2.5080   -5.4570 N.2     1     ****   -0.5880 
     14 C10         1.9830   -2.5390   -6.4350 C.2     1     ****    0.3960 
     15 N4          0.8490   -1.8410   -6.1390 N.pl3   1     ****   -0.1680 
     16 C11        -0.1280   -1.8490   -7.2060 C.3     1     ****    0.0400 
     17 C12         0.7070   -2.3620   -8.3960 C.3     1     ****   -0.1000 
     18 C13         1.9060   -3.1320   -7.7840 C.3     1     ****   -0.1070 
     19 C14         2.7870   -1.4030   -3.1910 C.2     1     ****    0.4280 
     20 O2          3.8890   -1.7670   -2.8050 O.2     1     ****   -0.4610 
     21 H1         -0.2950    3.1120   -0.6710 H       1     ****    0.0640 
     22 H2         -1.4550    2.2860    0.3760 H       1     ****    0.0640 
     23 H3          1.3090    2.0600    0.6950 H       1     ****    0.0810 
     24 H4          0.2160    0.7090    1.1090 H       1     ****    0.0810 
     25 H5         -1.8580    0.5760   -1.3140 H       1     ****    0.0760 
     26 H6         -1.3400    1.9110   -2.4150 H       1     ****    0.0750 
     27 H7         -0.9230   -2.5460   -6.9250 H       1     ****    0.0750 
     28 H8         -0.5160   -0.8400   -7.3610 H       1     ****    0.0750 
     29 H9          0.1210   -2.9770   -9.0850 H       1     ****    0.0650 
     30 H10         1.0860   -1.5020   -8.9650 H       1     ****    0.0640 
     31 H11         2.8180   -2.9810   -8.3670 H       1     ****    0.0820 
     32 H12         1.6870   -4.2020   -7.7200 H       1     ****    0.0810 
@<TRIPOS>BOND
     1  2 1 1
     2  3 2 1
     3  4 3 2
     4  5 4 1
     5  6 5 ar
     6  7 3 1
     7  7 6 1
     8  8 1 1
     9  8 7 1
    10  9 6 1
    11 10 9 2
    12 11 9 1
    13 12 11 ar
    14 13 12 1
    15 14 13 2
    16 15 11 1
    17 15 14 1
    18 16 15 1
    19 17 16 1
    20 18 14 1
    21 18 17 1
    22 19 5 1
    23 19 12 1
    24 20 19 2
    25 21 1 1
    26 22 1 1
    27 23 2 1
    28 24 2 1
    29 25 8 1
    30 26 8 1
    31 27 16 1
    32 28 16 1
    33 29 17 1
    34 30 17 1
    35 31 18 1
    36 32 18 1
@<TRIPOS>SUBSTRUCTURE
1     ****    1
@<TRIPOS>MOLECULE
ZINC00014023
25 27 1 0 0 
SMALL
USER_CHARGES


@<TRIPOS>ATOM
      1 C1         -1.8340    1.3960    3.1830 C.ar    1     ****   -0.1420 
      2 C2         -1.1160    0.3020    2.7200 C.ar    1     ****   -0.0920 
      3 C3         -0.7230    0.2410    1.3820 C.ar    1     ****   -0.1320 
      4 C4         -1.0350    1.2720    0.4720 C.ar    1     ****    0.0150 
      5 C5         -1.7800    2.3770    0.9540 C.ar    1     ****   -0.1750 
      6 C6         -2.1620    2.4280    2.3080 C.ar    1     ****   -0.0670 
      7 C7         -2.1800    3.5620    0.1340 C.2     1     ****    0.6830 
      8 O1         -2.3860    4.6550    0.6510 O.2     1     ****   -0.5330 
      9 N1         -2.2300    3.3250   -1.2290 N.am    1     ****   -0.4310 
     10 C8         -1.0020    3.5850   -1.8780 C.ar    1     ****    0.0180 
     11 C9         -0.7080    4.8530   -2.3770 C.ar    1     ****   -0.0920 
     12 C10         0.5320    5.0740   -2.9730 C.ar    1     ****   -0.1120 
     13 C11         1.4670    4.0390   -3.0500 C.ar    1     ****   -0.1300 
     14 C12         1.1720    2.7790   -2.5200 C.ar    1     ****   -0.0840 
     15 C13        -0.0650    2.5460   -1.9130 C.ar    1     ****   -0.0830 
     16 S1         -0.4310    0.9520   -1.2020 S.3     1     ****   -0.0980 
     17 H1         -2.5560    2.3830   -1.4430 H       1     ****    0.2800 
     18 H2         -2.1390    1.4470    4.2240 H       1     ****    0.1420 
     19 H3         -0.8580   -0.5070    3.3980 H       1     ****    0.1400 
     20 H4         -0.1610   -0.6350    1.0590 H       1     ****    0.1490 
     21 H5         -2.7280    3.2720    2.6970 H       1     ****    0.1590 
     22 H6         -1.4320    5.6590   -2.3130 H       1     ****    0.1590 
     23 H7          0.7740    6.0530   -3.3770 H       1     ****    0.1400 
     24 H8          2.4320    4.2160   -3.5160 H       1     ****    0.1390 
     25 H9          1.9220    1.9930   -2.5800 H       1     ****    0.1460 
@<TRIPOS>BOND
     1  2 1 ar
     2  3 2 ar
     3  4 3 ar
     4  5 4 ar
     5  6 1 ar
     6  6 5 ar
     7  7 5 1
     8  8 7 2
     9  9 7 1
    10 10 9 1
    11 11 10 ar
    12 12 11 ar
    13 13 12 ar
    14 14 13 ar
    15 15 10 ar
    16 15 14 ar
    17 16 4 1
    18 16 15 1
    19 17 9 1
    20 18 1 1
    21 19 2 1
    22 20 3 1
    23 21 6 1
    24 22 11 1
    25 23 12 1
    26 24 13 1
    27 25 14 1
@<TRIPOS>SUBSTRUCTURE
1     ****    1
@<TRIPOS>MOLECULE
ZINC00019726
14 15 1 0 0 
SMALL
USER_CHARGES


@<TRIPOS>ATOM
      1 C1          6.6900   -8.8790   -0.5460 C.ar    1     ****   -0.1320 
      2 C2          6.4630  -10.2330   -0.3220 C.ar    1     ****   -0.1190 
      3 C3          5.1630  -10.7450   -0.2840 C.ar    1     ****   -0.0900 
      4 C4          4.0920   -9.8570   -0.4770 C.ar    1     ****   -0.0850 
      5 C5          4.2960   -8.4930   -0.7040 C.ar    1     ****    0.0760 
      6 C6          5.6190   -8.0020   -0.7370 C.ar    1     ****   -0.0720 
      7 N1          3.1410   -7.7430   -0.8760 N.2     1     ****   -0.5170 
      8 C7          2.0920   -8.5260   -0.7820 C.2     1     ****    0.3540 
      9 S1          2.3990  -10.1830   -0.4860 S.2     1     ****   -0.0430 
     10 H1          7.7080   -8.4990   -0.5730 H       1     ****    0.1370 
     11 H2          7.3060  -10.9030   -0.1750 H       1     ****    0.1360 
     12 H3          4.9920  -11.8030   -0.1090 H       1     ****    0.1400 
     13 H4          5.8040   -6.9460   -0.9120 H       1     ****    0.1520 
     14 H5          1.0840   -8.1490   -0.8850 H       1     ****    0.0620 
@<TRIPOS>BOND
     1  2 1 ar
     2  3 2 ar
     3  4 3 ar
     4  5 4 ar
     5  6 1 ar
     6  6 5 ar
     7  7 5 1
     8  8 7 2
     9  9 4 1
    10  9 8 1
    11 10 1 1
    12 11 2 1
    13 12 3 1
    14 13 6 1
    15 14 8 1
@<TRIPOS>SUBSTRUCTURE
1     ****    1
@<TRIPOS>MOLECULE
ZINC00024215
22 24 1 0 0 
SMALL
USER_CHARGES


@<TRIPOS>ATOM
      1 C1          4.2490   -6.5380    1.6870 C.ar    1     ****   -0.1500 
      2 C2          3.9680   -7.1490    0.4650 C.ar    1     ****   -0.0750 
      3 C3          3.0210   -6.5970   -0.4130 C.ar    1     ****   -0.0630 
      4 C4          2.7320   -7.2050   -1.6450 C.ar    1     ****   -0.0750 
      5 C5          1.7900   -6.6500   -2.5110 C.ar    1     ****   -0.1500 
      6 C6          1.1220   -5.4810   -2.1600 C.ar    1     ****   -0.0350 
      7 C7          1.3990   -4.8640   -0.9360 C.ar    1     ****   -0.1550 
      8 C8          2.3450   -5.4070   -0.0490 C.ar    1     ****    0.0190 
      9 C9          2.6430   -4.8080    1.1870 C.ar    1     ****   -0.1550 
     10 C10         3.5890   -5.3690    2.0510 C.ar    1     ****   -0.0350 
     11 C11         1.9440   -3.5640    1.5790 C.2     1     ****    0.7210 
     12 O1          2.1780   -3.0140    2.6500 O.2     1     ****   -0.6120 
     13 N1          1.0220   -3.0770    0.6640 N.am    1     ****   -0.5900 
     14 C12         0.6870   -3.6210   -0.5680 C.2     1     ****    0.7210 
     15 O2         -0.1450   -3.1200   -1.3170 O.2     1     ****   -0.6120 
     16 H1          0.5380   -2.2230    0.9240 H       1     ****    0.3420 
     17 H2          4.9840   -6.9780    2.3550 H       1     ****    0.1450 
     18 H3          4.4970   -8.0630    0.2030 H       1     ****    0.1410 
     19 H4          3.2410   -8.1200   -1.9420 H       1     ****    0.1410 
     20 H5          1.5770   -7.1330   -3.4620 H       1     ****    0.1450 
     21 H6          0.3910   -5.0640   -2.8480 H       1     ****    0.1650 
     22 H7          3.8210   -4.9070    3.0080 H       1     ****    0.1650 
@<TRIPOS>BOND
     1  2 1 ar
     2  3 2 ar
     3  4 3 ar
     4  5 4 ar
     5  6 5 ar
     6  7 6 ar
     7  8 3 ar
     8  8 7 ar
     9  9 8 ar
    10 10 1 ar
    11 10 9 ar
    12 11 9 1
    13 12 11 2
    14 13 11 1
    15 14 7 1
    16 14 13 1
    17 15 14 2
    18 16 13 1
    19 17 1 1
    20 18 2 1
    21 19 4 1
    22 20 5 1
    23 21 6 1
    24 22 10 1
@<TRIPOS>SUBSTRUCTURE
1     ****    1
@<TRIPOS>MOLECULE
ZINC00025784
30 33 1 0 0 
SMALL
USER_CHARGES


@<TRIPOS>ATOM
      1 C1          5.3440   -7.9800   -1.1470 C.ar    1     ****   -0.1590 
      2 C2          4.0370   -8.0300   -0.6610 C.ar    1     ****   -0.0840 
      3 C3          3.6580   -7.2190    0.4080 C.ar    1     ****   -0.1490 
      4 C4          4.5880   -6.3570    0.9910 C.ar    1     ****    0.1310 
      5 C5          5.8880   -6.3070    0.5070 C.ar    1     ****   -0.2040 
      6 C6          6.2740   -7.1180   -0.5650 C.ar    1     ****   -0.0510 
      7 C7          6.8410   -5.3890    1.1420 C.2     1     ****    0.6150 
      8 O1          7.9940   -5.3110    0.7380 O.2     1     ****   -0.5170 
      9 C8          6.3270   -4.5770    2.2760 C.2     1     ****   -0.4050 
     10 C9          5.0440   -4.7120    2.6580 C.2     1     ****    0.4230 
     11 O2          4.1570   -5.5860    2.0350 O.3     1     ****   -0.1870 
     12 N1          4.4880   -4.0030    3.6910 N.2     1     ****   -0.6480 
     13 C10         5.2160   -3.1390    4.3220 C.2     1     ****    0.5280 
     14 N2          6.5460   -2.8790    4.0200 N.am    1     ****   -0.3910 
     15 C11         7.1890   -3.6180    3.0220 C.2     1     ****    0.7300 
     16 O3          8.3870   -3.5260    2.7560 O.2     1     ****   -0.5790 
     17 C12         7.3970   -1.9500    4.7690 C.3     1     ****    0.0650 
     18 C13         6.6660   -0.8190    5.4620 C.3     1     ****   -0.0960 
     19 C14         5.6810   -1.3840    6.4570 C.3     1     ****   -0.0760 
     20 S1          4.3800   -2.2690    5.5950 S.3     1     ****   -0.0540 
     21 H1          5.6380   -8.6120   -1.9800 H       1     ****    0.1420 
     22 H2          3.3150   -8.7020   -1.1160 H       1     ****    0.1410 
     23 H3          2.6380   -7.2630    0.7820 H       1     ****    0.1590 
     24 H4          7.2880   -7.0900   -0.9540 H       1     ****    0.1640 
     25 H5          7.9540   -2.5510    5.4990 H       1     ****    0.0660 
     26 H6          8.1400   -1.5190    4.0870 H       1     ****    0.1040 
     27 H7          7.3950   -0.1940    5.9900 H       1     ****    0.0770 
     28 H8          6.1650   -0.1730    4.7300 H       1     ****    0.0730 
     29 H9          6.1750   -2.0590    7.1640 H       1     ****    0.0840 
     30 H10         5.2260   -0.5760    7.0380 H       1     ****    0.1000 
@<TRIPOS>BOND
     1  2 1 ar
     2  3 2 ar
     3  4 3 ar
     4  5 4 ar
     5  6 1 ar
     6  6 5 ar
     7  7 5 1
     8  8 7 2
     9  9 7 1
    10 10 9 2
    11 11 4 1
    12 11 10 1
    13 12 10 1
    14 13 12 2
    15 14 13 1
    16 15 9 1
    17 15 14 1
    18 16 15 2
    19 17 14 1
    20 18 17 1
    21 19 18 1
    22 20 13 1
    23 20 19 1
    24 21 1 1
    25 22 2 1
    26 23 3 1
    27 24 6 1
    28 25 17 1
    29 26 17 1
    30 27 18 1
    31 28 18 1
    32 29 19 1
    33 30 19 1
@<TRIPOS>SUBSTRUCTURE
1     ****    1
@<TRIPOS>MOLECULE
ZINC00026774
25 28 1 0 0 
SMALL
USER_CHARGES


@<TRIPOS>ATOM
      1 C1          5.3370   -7.9630    1.8240 C.ar    1     ****   -0.2500 
      2 C2          5.6190   -6.6740    2.2400 C.ar    1     ****   -0.0450 
      3 C3          4.7520   -5.6350    1.8860 C.ar    1     ****   -0.2710 
      4 C4          3.6040   -5.8940    1.1170 C.ar    1     ****    0.3920 
      5 N1          3.3450   -7.1580    0.7210 N.ar    1     ****   -0.6310 
      6 C5          4.1960   -8.1520    1.0720 C.ar    1     ****    0.4210 
      7 C6          2.7360   -4.8660    0.7610 C.ar    1     ****    0.3860 
      8 C7          3.0020   -3.5450    1.1720 C.ar    1     ****   -0.2420 
      9 C8          2.1270   -2.5000    0.8150 C.ar    1     ****   -0.0020 
     10 C9          1.0020   -2.8010    0.0520 C.ar    1     ****   -0.2230 
     11 C10         0.8070   -4.1180   -0.3130 C.ar    1     ****    0.3970 
     12 N2          1.6380   -5.1310    0.0230 N.ar    1     ****   -0.6110 
     13 C11         2.4110   -1.1940    1.2350 C.ar    1     ****   -0.2090 
     14 C12         3.5520   -0.9740    1.9920 C.ar    1     ****    0.3890 
     15 N3          4.4160   -1.9440    2.3560 N.ar    1     ****   -0.6050 
     16 C13         4.1160   -3.1940    1.9370 C.ar    1     ****    0.3820 
     17 C14         5.0570   -4.2560    2.3320 C.2     1     ****    0.4840 
     18 O1          6.0480   -4.0010    3.0020 O.2     1     ****   -0.4860 
     19 H1          5.9860   -8.7920    2.0790 H       1     ****    0.1530 
     20 H2          6.5100   -6.4880    2.8340 H       1     ****    0.1670 
     21 H3          3.9190   -9.1390    0.7160 H       1     ****    0.0320 
     22 H4          0.2930   -2.0380   -0.2520 H       1     ****    0.1520 
     23 H5         -0.0530   -4.4090   -0.9070 H       1     ****    0.0330 
     24 H6          1.7610   -0.3620    0.9800 H       1     ****    0.1530 
     25 H7          3.8060    0.0240    2.3360 H       1     ****    0.0340 
@<TRIPOS>BOND
     1  2 1 ar
     2  3 2 ar
     3  4 3 ar
     4  5 4 ar
     5  6 1 ar
     6  6 5 ar
     7  7 4 1
     8  8 7 ar
     9  9 8 ar
    10 10 9 ar
    11 11 10 ar
    12 12 7 ar
    13 12 11 ar
    14 13 9 ar
    15 14 13 ar
    16 15 14 ar
    17 16 8 ar
    18 16 15 ar
    19 17 3 1
    20 17 16 1
    21 18 17 2
    22 19 1 1
    23 20 2 1
    24 21 6 1
    25 22 10 1
    26 23 11 1
    27 24 13 1
    28 25 14 1
@<TRIPOS>SUBSTRUCTURE
1     ****    1
@<TRIPOS>MOLECULE
ZINC00028150
23 25 1 0 0 
SMALL
USER_CHARGES


@<TRIPOS>ATOM
      1 C1          5.1340   -7.9040    0.1070 C.ar    1     ****   -0.0930 
      2 C2          4.5020   -8.4070    1.2380 C.ar    1     ****   -0.1570 
      3 C3          3.3850   -7.7540    1.7580 C.ar    1     ****   -0.0820 
      4 C4          2.8900   -6.5900    1.1510 C.ar    1     ****   -0.0280 
      5 C5          3.5240   -6.0770    0.0080 C.ar    1     ****    0.0850 
      6 C6          4.6480   -6.7470   -0.5030 C.ar    1     ****   -0.1850 
      7 N1          3.0700   -4.9160   -0.6380 N.pl3   1     ****   -0.2940 
      8 C7          1.9740   -4.1150   -0.2810 C.ar    1     ****    0.0850 
      9 C8          1.6740   -2.9830   -1.0590 C.ar    1     ****   -0.1850 
     10 C9          0.5950   -2.1580   -0.7410 C.ar    1     ****   -0.0930 
     11 C10        -0.2010   -2.4540    0.3600 C.ar    1     ****   -0.1570 
     12 C11         0.0830   -3.5730    1.1420 C.ar    1     ****   -0.0820 
     13 C12         1.1670   -4.4080    0.8290 C.ar    1     ****   -0.0280 
     14 S1          1.4560   -5.8190    1.8840 S.3     1     ****   -0.1670 
     15 H1          3.5930   -4.6240   -1.4550 H       1     ****    0.2910 
     16 H2          6.0040   -8.4100   -0.3020 H       1     ****    0.1340 
     17 H3          4.8770   -9.3080    1.7160 H       1     ****    0.1360 
     18 H4          2.9070   -8.1660    2.6440 H       1     ****    0.1420 
     19 H5          5.1560   -6.3690   -1.3880 H       1     ****    0.1330 
     20 H6          2.2860   -2.7350   -1.9240 H       1     ****    0.1330 
     21 H7          0.3780   -1.2880   -1.3520 H       1     ****    0.1340 
     22 H8         -1.0430   -1.8150    0.6110 H       1     ****    0.1360 
     23 H9         -0.5540   -3.7850    1.9980 H       1     ****    0.1420 
@<TRIPOS>BOND
     1  2 1 ar
     2  3 2 ar
     3  4 3 ar
     4  5 4 ar
     5  6 1 ar
     6  6 5 ar
     7  7 5 1
     8  8 7 1
     9  9 8 ar
    10 10 9 ar
    11 11 10 ar
    12 12 11 ar
    13 13 8 ar
    14 13 12 ar
    15 14 4 1
    16 14 13 1
    17 15 7 1
    18 16 1 1
    19 17 2 1
    20 18 3 1
    21 19 6 1
    22 20 9 1
    23 21 10 1
    24 22 11 1
    25 23 12 1
@<TRIPOS>SUBSTRUCTURE
1     ****    1
@<TRIPOS>MOLECULE
ZINC00000463
26 28 1 0 0 
SMALL
USER_CHARGES


@<TRIPOS>ATOM
      1 C1          4.8340   -9.2300   -1.2710 C.3     1     ****   -0.1100 
      2 C2          4.1640   -8.2670   -0.3030 C.3     1     ****    0.1170 
      3 C3          2.7920   -7.8210   -0.7960 C.3     1     ****   -0.1150 
      4 C4          2.6940   -6.4880   -0.0970 C.3     1     ****    0.2300 
      5 N1          4.0460   -6.0190   -0.1050 N.am    1     ****   -0.2520 
      6 O1          4.9590   -7.0840   -0.1720 O.3     1     ****   -0.2370 
      7 C5          4.4380   -4.7410    0.1050 C.2     1     ****    0.6700 
      8 O2          5.5800   -4.3460    0.2910 O.2     1     ****   -0.5430 
      9 C6          3.2900   -3.8060    0.0280 C.ar    1     ****   -0.1980 
     10 C7          3.4480   -2.4600    0.3630 C.ar    1     ****   -0.0370 
     11 C8          2.3650   -1.5930    0.2160 C.ar    1     ****   -0.0200 
     12 C9          1.1400   -2.0550   -0.2730 C.ar    1     ****   -0.0760 
     13 C10         0.9880   -3.4000   -0.6130 C.ar    1     ****   -0.1490 
     14 C11         2.0560   -4.2810   -0.4500 C.ar    1     ****    0.1440 
     15 O3          1.8500   -5.5910   -0.8220 O.3     1     ****   -0.3310 
     16 CL1         2.5430    0.0700    0.6280 Cl      1     ****   -0.0790 
     17 H1          5.8190   -9.5230   -0.8940 H       1     ****    0.0630 
     18 H2          4.2310  -10.1320   -1.4150 H       1     ****    0.0460 
     19 H3          4.9990   -8.7570   -2.2450 H       1     ****    0.0510 
     20 H4          4.0660   -8.7810    0.6670 H       1     ****    0.0750 
     21 H5          2.7760   -7.6870   -1.8850 H       1     ****    0.0880 
     22 H6          1.9860   -8.5130   -0.5330 H       1     ****    0.0760 
     23 H7          2.2970   -6.6220    0.9230 H       1     ****    0.0960 
     24 H8          4.4030   -2.0880    0.7270 H       1     ****    0.1740 
     25 H9          0.2990   -1.3770   -0.3950 H       1     ****    0.1550 
     26 H10         0.0360   -3.7550   -0.9980 H       1     ****    0.1590 
@<TRIPOS>BOND
     1  2 1 1
     2  3 2 1
     3  4 3 1
     4  5 4 1
     5  6 2 1
     6  6 5 1
     7  7 5 1
     8  8 7 2
     9  9 7 1
    10 10 9 ar
    11 11 10 ar
    12 12 11 ar
    13 13 12 ar
    14 14 9 ar
    15 14 13 ar
    16 15 4 1
    17 15 14 1
    18 16 11 1
    19 17 1 1
    20 18 1 1
    21 19 1 1
    22 20 2 1
    23 21 3 1
    24 22 3 1
    25 23 4 1
    26 24 10 1
    27 25 12 1
    28 26 13 1
@<TRIPOS>SUBSTRUCTURE
1     ****    1
@<TRIPOS>MOLECULE
ZINC00000685
38 41 1 0 0 
SMALL
USER_CHARGES


@<TRIPOS>ATOM
      1 C1         -0.7290   12.3770    9.1780 C.ar    1     ****   -0.1680 
      2 C2         -0.2890   11.5580    8.1380 C.ar    1     ****   -0.0170 
      3 C3          0.9350   10.8910    8.2470 C.ar    1     ****   -0.2980 
      4 C4          1.7190   11.0440    9.4010 C.ar    1     ****    0.0340 
      5 C5          1.2810   11.8790   10.4350 C.ar    1     ****   -0.2340 
      6 C6          0.0570   12.5340   10.3170 C.ar    1     ****    0.2230 
      7 O1         -0.4040   13.3510   11.3100 O.3     1     ****   -0.4560 
      8 C7          3.0530   10.3600    9.4690 C.3     1     ****   -0.0740 
      9 C8          3.0040    9.0130    8.7610 C.3     1     ****   -0.0020 
     10 N1          2.4180    9.1590    7.3820 N.2     1     ****   -0.1320 
     11 C9          1.4640   10.0180    7.1600 C.2     1     ****    0.4440 
     12 C10         0.8530   10.1340    5.7550 C.3     1     ****   -0.1690 
     13 C11         1.5070    9.3220    4.6360 C.3     1     ****   -0.0850 
     14 C12         1.9970    8.0370    5.2580 C.3     1     ****   -0.0820 
     15 C13         3.0370    8.3580    6.2810 C.3     1     ****   -0.0130 
     16 C14         3.4750    6.9500    6.6840 C.3     1     ****   -0.0840 
     17 C15         3.4840    6.1800    5.3440 C.3     1     ****   -0.0840 
     18 C16         2.6630    7.0210    4.3480 C.3     1     ****   -0.0750 
     19 H1          0.2470   13.3620   12.0320 H       1     ****    0.4480 
     20 H2         -1.6820   12.8930    9.0940 H       1     ****    0.1840 
     21 H3         -0.9220   11.4560    7.2610 H       1     ****    0.1540 
     22 H4          1.8940   12.0150   11.3220 H       1     ****    0.1630 
     23 H5          3.8020   11.0120    9.0020 H       1     ****    0.0920 
     24 H6          3.3550   10.2030   10.5110 H       1     ****    0.1010 
     25 H7          4.0200    8.6150    8.6750 H       1     ****    0.0990 
     26 H8          2.3760    8.2900    9.2930 H       1     ****    0.0910 
     27 H9         -0.1890    9.7980    5.8390 H       1     ****    0.1020 
     28 H10         0.8290   11.1900    5.4620 H       1     ****    0.1070 
     29 H11         0.7890    9.1320    3.8300 H       1     ****    0.0880 
     30 H12         2.3410    9.8860    4.2020 H       1     ****    0.0700 
     31 H13         1.1020    7.5350    5.6700 H       1     ****    0.0730 
     32 H14         3.9260    8.9040    5.9250 H       1     ****    0.0930 
     33 H15         4.4620    6.9290    7.1570 H       1     ****    0.0670 
     34 H16         2.7630    6.4790    7.3730 H       1     ****    0.0630 
     35 H17         4.5070    6.0500    4.9740 H       1     ****    0.0690 
     36 H18         3.0500    5.1830    5.4750 H       1     ****    0.0710 
     37 H19         1.9420    6.4140    3.7930 H       1     ****    0.0760 
     38 H20         3.3300    7.5070    3.6270 H       1     ****    0.0630 
@<TRIPOS>BOND
     1  2 1 ar
     2  3 2 ar
     3  4 3 ar
     4  5 4 ar
     5  6 1 ar
     6  6 5 ar
     7  7 6 1
     8  8 4 1
     9  9 8 1
    10 10 9 1
    11 11 3 1
    12 11 10 2
    13 12 11 1
    14 13 12 1
    15 14 13 1
    16 15 10 1
    17 15 14 1
    18 16 15 1
    19 17 16 1
    20 18 14 1
    21 18 17 1
    22 19 7 1
    23 20 1 1
    24 21 2 1
    25 22 5 1
    26 23 8 1
    27 24 8 1
    28 25 9 1
    29 26 9 1
    30 27 12 1
    31 28 12 1
    32 29 13 1
    33 30 13 1
    34 31 14 1
    35 32 15 1
    36 33 16 1
    37 34 16 1
    38 35 17 1
    39 36 17 1
    40 37 18 1
    41 38 18 1
@<TRIPOS>SUBSTRUCTURE
1     ****    1
@<TRIPOS>MOLECULE
ZINC00000706
39 44 1 0 0 
SMALL
USER_CHARGES


@<TRIPOS>ATOM
      1 C1          0.6360   -3.5460   -2.8820 C.3     1     ****   -0.0320 
      2 N1          0.2100   -2.1320   -2.7700 N.ar    1     ****    0.0360 
      3 C2         -0.5980   -1.7170   -3.7710 C.ar    1     ****    0.0690 
      4 C3         -0.8750   -0.3830   -4.0060 C.ar    1     ****   -0.1080 
      5 C4         -0.2860    0.5920   -3.1890 C.ar    1     ****    0.0260 
      6 C5         -0.5710    1.9610   -3.5130 C.ar    1     ****   -0.1270 
      7 C6         -1.3970    2.3360   -4.5790 C.ar    1     ****   -0.0310 
      8 C7         -1.9480    1.3350   -5.3370 C.ar    1     ****    0.0650 
      9 C8         -1.6960    0.0150   -5.0620 C.ar    1     ****    0.1140 
     10 O1         -2.3330   -0.8140   -5.9420 O.3     1     ****   -0.3260 
     11 C9         -3.0120    0.1380   -6.7860 C.3     1     ****    0.3240 
     12 O2         -2.7690    1.5050   -6.4070 O.3     1     ****   -0.3050 
     13 C10         0.5280    0.1440   -2.0980 C.ar    1     ****   -0.0050 
     14 C11         0.6970   -1.2590   -1.8220 C.ar    1     ****   -0.0150 
     15 C12         1.3610   -1.6720   -0.5950 C.ar    1     ****   -0.0250 
     16 C13         1.3780   -2.9860   -0.0430 C.ar    1     ****   -0.1600 
     17 C14         2.0810   -3.2660    1.1160 C.ar    1     ****    0.1060 
     18 C15         2.7570   -2.2960    1.7940 C.ar    1     ****    0.0960 
     19 C16         2.7390   -0.9940    1.3630 C.ar    1     ****   -0.1080 
     20 C17         2.0230   -0.6770    0.1920 C.ar    1     ****   -0.0170 
     21 C18         1.9470    0.6610   -0.1690 C.ar    1     ****   -0.0620 
     22 C19         1.1860    1.0610   -1.2610 C.ar    1     ****   -0.1280 
     23 O3          3.3770   -2.7700    2.9070 O.3     1     ****   -0.3110 
     24 C20         3.0100   -4.1640    2.8490 C.3     1     ****    0.3200 
     25 O4          2.1750   -4.4840    1.7170 O.3     1     ****   -0.3200 
     26 H1          0.6280   -3.8450   -3.9360 H       1     ****    0.0860 
     27 H2          1.6670   -3.6510   -2.5400 H       1     ****    0.1120 
     28 H3         -0.0780   -4.1610   -2.3310 H       1     ****    0.0930 
     29 H4         -0.9940   -2.4970   -4.4170 H       1     ****    0.2090 
     30 H5         -0.1550    2.7720   -2.9210 H       1     ****    0.1670 
     31 H6         -1.5920    3.3810   -4.7910 H       1     ****    0.1880 
     32 H7         -2.6760   -0.0070   -7.8190 H       1     ****    0.1020 
     33 H8         -4.0900   -0.0550   -6.7360 H       1     ****    0.1020 
     34 H9          0.8160   -3.8050   -0.4710 H       1     ****    0.1600 
     35 H10         3.2520   -0.2300    1.9400 H       1     ****    0.1800 
     36 H11         2.4400    1.4300    0.4240 H       1     ****    0.1670 
     37 H12         1.1390    2.1330   -1.4390 H       1     ****    0.1610 
     38 H13         3.9230   -4.7660    2.7940 H       1     ****    0.0960 
     39 H14         2.4700   -4.4230    3.7670 H       1     ****    0.1000 
@<TRIPOS>BOND
     1  2 1 1
     2  3 2 ar
     3  4 3 ar
     4  5 4 ar
     5  6 5 ar
     6  7 6 ar
     7  8 7 ar
     8  9 4 ar
     9  9 8 ar
    10 10 9 1
    11 11 10 1
    12 12 8 1
    13 12 11 1
    14 13 5 ar
    15 14 2 ar
    16 14 13 ar
    17 15 14 ar
    18 16 15 ar
    19 17 16 ar
    20 18 17 ar
    21 19 18 ar
    22 20 15 ar
    23 20 19 ar
    24 21 20 ar
    25 22 13 ar
    26 22 21 ar
    27 23 18 1
    28 24 23 1
    29 25 17 1
    30 25 24 1
    31 26 1 1
    32 27 1 1
    33 28 1 1
    34 29 3 1
    35 30 6 1
    36 31 7 1
    37 32 11 1
    38 33 11 1
    39 34 16 1
    40 35 19 1
    41 36 21 1
    42 37 22 1
    43 38 24 1
    44 39 24 1
@<TRIPOS>SUBSTRUCTURE
1     ****    1
@<TRIPOS>MOLECULE
ZINC00000855
41 44 1 0 0 
SMALL
USER_CHARGES


@<TRIPOS>ATOM
      1 C1          3.3950    6.7950   -5.4860 C.3     1     ****    0.0840 
      2 C2          4.2370    4.4890   -5.9320 C.3     1     ****    0.1020 
      3 C3          3.8180    3.1090   -6.4250 C.3     1     ****    0.1720 
      4 N1          2.7440    2.5640   -5.5790 N.pl3   1     ****   -0.6580 
      5 C4          2.6580    1.1730   -5.5130 C.ar    1     ****    0.1020 
      6 C5          2.9340    0.3400   -6.6110 C.ar    1     ****   -0.1580 
      7 C6          2.8790   -1.0520   -6.5000 C.ar    1     ****   -0.1050 
      8 C7          2.5500   -1.6420   -5.2850 C.ar    1     ****   -0.1160 
      9 C8          2.2710   -0.8410   -4.1810 C.ar    1     ****   -0.1040 
     10 C9          2.3280    0.5570   -4.2890 C.ar    1     ****   -0.0660 
     11 C10         1.9810    1.4300   -3.1110 C.3     1     ****    0.0080 
     12 C11         0.6560    2.0990   -3.3630 C.ar    1     ****   -0.0360 
     13 C12        -0.4180    1.8040   -2.5020 C.ar    1     ****   -0.1230 
     14 C13        -1.6880    2.3270   -2.7330 C.ar    1     ****   -0.0970 
     15 C14        -1.9050    3.1470   -3.8310 C.ar    1     ****   -0.1200 
     16 C15        -0.8470    3.4500   -4.6900 C.ar    1     ****   -0.1310 
     17 C16         0.4530    2.9390   -4.4760 C.ar    1     ****   -0.1180 
     18 C17         1.5440    3.4330   -5.4480 C.3     1     ****    0.2680 
     19 C18         2.0030    4.8110   -4.9450 C.3     1     ****    0.0950 
     20 H1          4.1220    7.1740   -6.2100 H       1     ****    0.1020 
     21 H2          2.4860    7.4020   -5.5170 H       1     ****    0.1030 
     22 H3          3.8200    6.7720   -4.4790 H       1     ****    0.1070 
     23 H4          4.9620    4.9400   -6.6170 H       1     ****    0.1010 
     24 H5          4.6610    4.4490   -4.9220 H       1     ****    0.1160 
     25 H6          3.4790    3.1680   -7.4670 H       1     ****    0.0410 
     26 H7          4.7070    2.4660   -6.3960 H       1     ****    0.1150 
     27 H8          3.1860    0.7640   -7.5800 H       1     ****    0.1300 
     28 H9          3.0930   -1.6730   -7.3650 H       1     ****    0.1480 
     29 H10         2.5040   -2.7230   -5.1980 H       1     ****    0.1520 
     30 H11         2.0030   -1.3100   -3.2380 H       1     ****    0.1480 
     31 H12         1.9500    0.8290   -2.1930 H       1     ****    0.0700 
     32 H13         2.7600    2.1830   -2.9370 H       1     ****    0.0650 
     33 H14        -0.2720    1.1470   -1.6470 H       1     ****    0.1490 
     34 H15        -2.5070    2.0860   -2.0610 H       1     ****    0.1530 
     35 H16        -2.8930    3.5560   -4.0200 H       1     ****    0.1500 
     36 H17        -1.0440    4.1080   -5.5340 H       1     ****    0.1240 
     37 H18         1.0460    3.4870   -6.4320 H       1     ****    0.0440 
     38 H19         2.4600    4.7620   -3.9480 H       1     ****    0.1180 
     39 H20         1.1690    5.5210   -4.9150 H       1     ****    0.1050 
     40 N2          3.0300    5.3880   -5.8910 N.4     1     ****   -0.6820 
     41 H21         2.6430    5.4820   -6.8460 H       1     ****    0.4430 
@<TRIPOS>BOND
     1  3 2 1
     2  4 3 1
     3  5 4 1
     4  6 5 ar
     5  7 6 ar
     6  8 7 ar
     7  9 8 ar
     8 10 5 ar
     9 10 9 ar
    10 11 10 1
    11 12 11 1
    12 13 12 ar
    13 14 13 ar
    14 15 14 ar
    15 16 15 ar
    16 17 12 ar
    17 17 16 ar
    18 18 4 1
    19 18 17 1
    20 19 18 1
    21 20 1 1
    22 21 1 1
    23 22 1 1
    24 23 2 1
    25 24 2 1
    26 25 3 1
    27 26 3 1
    28 27 6 1
    29 28 7 1
    30 29 8 1
    31 30 9 1
    32 31 11 1
    33 32 11 1
    34 33 13 1
    35 34 14 1
    36 35 15 1
    37 36 16 1
    38 37 18 1
    39 38 19 1
    40 39 19 1
    41 40 1 1
    42 40 2 1
    43 40 19 1
    44 41 40 1
@<TRIPOS>SUBSTRUCTURE
1     ****    1
@<TRIPOS>MOLECULE
ZINC00001011
14 14 1 0 0 
SMALL
USER_CHARGES


@<TRIPOS>ATOM
      1 C1         -0.3890    3.0260    0.2200 C.ar    1     ****   -0.1620 
      2 C2          0.8170    2.3710    0.4550 C.ar    1     ****   -0.1660 
      3 C3          1.3410    2.3070    1.7480 C.ar    1     ****   -0.1090 
      4 C4          0.6660    2.8980    2.8290 C.ar    1     ****   -0.1240 
      5 C5         -0.5490    3.5540    2.5740 C.ar    1     ****   -0.1090 
      6 C6         -1.0720    3.6180    1.2790 C.ar    1     ****   -0.1660 
      7 C7          1.2310    2.8290    4.2270 C.2     1     ****    0.9060 
      8 O1          2.3350    2.2180    4.3790 O.co2   1     ****   -0.8340 
      9 H1         -0.7950    3.0750   -0.7860 H       1     ****    0.0970 
     10 H2          1.3530    1.9080   -0.3690 H       1     ****    0.1010 
     11 H3          2.2850    1.7890    1.9020 H       1     ****    0.1480 
     12 H4         -1.1050    4.0250    3.3820 H       1     ****    0.1480 
     13 H5         -2.0130    4.1300    1.1010 H       1     ****    0.1010 
     14 O2          0.5630    3.3870    5.1530 O.co2   1     ****   -0.8340 
@<TRIPOS>BOND
     1  2 1 ar
     2  3 2 ar
     3  4 3 ar
     4  5 4 ar
     5  6 1 ar
     6  6 5 ar
     7  7 4 1
     8  8 7 1
     9  9 1 1
    10 10 2 1
    11 11 3 1
    12 12 5 1
    13 13 6 1
    14 14 7 2
@<TRIPOS>SUBSTRUCTURE
1     ****    1
@<TRIPOS>MOLECULE
ZINC00001051
29 31 1 0 0 
SMALL
USER_CHARGES


@<TRIPOS>ATOM
      1 C1          5.7630   -8.8830    0.0350 C.ar    1     ****   -0.1030 
      2 C2          5.7990   -9.4450    1.3060 C.ar    1     ****   -0.2320 
      3 C3          5.4980   -8.6310    2.3850 C.ar    1     ****    0.3920 
      4 N1          5.1730   -7.3230    2.2780 N.ar    1     ****   -0.6450 
      5 C4          5.1550   -6.8020    1.0270 C.ar    1     ****    0.3520 
      6 C5          5.4320   -7.5400   -0.1190 C.ar    1     ****   -0.1980 
      7 C6          4.7630   -5.3620    0.9250 C.2     1     ****    0.4380 
      8 N2          4.1670   -4.9940   -0.1580 N.2     1     ****   -0.5840 
      9 C7          3.7490   -3.6140   -0.3000 C.3     1     ****    0.0430 
     10 C8          2.5740   -3.3780    0.6150 C.2     1     ****    0.6890 
     11 O1          1.4400   -3.1960    0.1680 O.2     1     ****   -0.6080 
     12 N3          2.8510   -3.2890    1.9600 N.am    1     ****   -0.4740 
     13 C9          4.0770   -3.5760    2.5930 C.ar    1     ****    0.1040 
     14 C10         5.0440   -4.4610    2.0860 C.ar    1     ****   -0.2020 
     15 C11         6.2790   -4.5900    2.7450 C.ar    1     ****   -0.0330 
     16 C12         6.5140   -3.8990    3.9330 C.ar    1     ****   -0.0580 
     17 C13         5.5310   -3.0820    4.4800 C.ar    1     ****   -0.0620 
     18 C14         4.3150   -2.9270    3.8140 C.ar    1     ****   -0.1800 
     19 BR1         8.1720   -4.0970    4.8210 Br      1     ****   -0.0780 
     20 H1          2.1110   -2.9050    2.5400 H       1     ****    0.3290 
     21 H2          5.9900   -9.4900   -0.8360 H       1     ****    0.1430 
     22 H3          6.0540  -10.4890    1.4480 H       1     ****    0.1470 
     23 H4          5.5100   -9.0220    3.3970 H       1     ****    0.0270 
     24 H5          5.4030   -7.0990   -1.1090 H       1     ****    0.1620 
     25 H6          4.5560   -2.8980   -0.1060 H       1     ****    0.0710 
     26 H7          3.4240   -3.4460   -1.3320 H       1     ****    0.1080 
     27 H8          7.0490   -5.2460    2.3450 H       1     ****    0.1560 
     28 H9          5.6980   -2.5500    5.4140 H       1     ****    0.1520 
     29 H10         3.5670   -2.2620    4.2410 H       1     ****    0.1440 
@<TRIPOS>BOND
     1  2 1 ar
     2  3 2 ar
     3  4 3 ar
     4  5 4 ar
     5  6 1 ar
     6  6 5 ar
     7  7 5 1
     8  8 7 2
     9  9 8 1
    10 10 9 1
    11 11 10 2
    12 12 10 1
    13 13 12 1
    14 14 7 1
    15 14 13 ar
    16 15 14 ar
    17 16 15 ar
    18 17 16 ar
    19 18 13 ar
    20 18 17 ar
    21 19 16 1
    22 20 12 1
    23 21 1 1
    24 22 2 1
    25 23 3 1
    26 24 6 1
    27 25 9 1
    28 26 9 1
    29 27 15 1
    30 28 17 1
    31 29 18 1
@<TRIPOS>SUBSTRUCTURE
1     ****    1
@<TRIPOS>MOLECULE
ZINC00001064
18 19 1 0 0 
SMALL
USER_CHARGES


@<TRIPOS>ATOM
      1 C1          2.9160   -7.4090   -2.5730 C.ar    1     ****   -0.2240 
      2 C2          2.0140   -7.7320   -1.5690 C.ar    1     ****   -0.0950 
      3 C3          1.5740   -6.7620   -0.6390 C.ar    1     ****   -0.0870 
      4 C4          0.6550   -7.0200    0.4130 C.ar    1     ****   -0.0520 
      5 C5          0.2640   -6.0120    1.2960 C.ar    1     ****   -0.0340 
      6 C6          0.7840   -4.7350    1.1420 C.ar    1     ****   -0.1460 
      7 C7          1.6900   -4.4700    0.1120 C.ar    1     ****    0.1510 
      8 C8          2.1000   -5.4570   -0.7880 C.ar    1     ****    0.3740 
      9 N1          2.9770   -5.1470   -1.7660 N.ar    1     ****   -0.6200 
     10 C9          3.3650   -6.1100   -2.6280 C.ar    1     ****    0.4010 
     11 O1          2.2100   -3.2060   -0.0460 O.3     1     ****   -0.4520 
     12 BR1         0.2440   -3.3770    2.3500 Br      1     ****   -0.0720 
     13 BR2        -0.1120   -8.7420    0.7010 Br      1     ****   -0.0770 
     14 H1          1.8350   -2.6350    0.6460 H       1     ****    0.4340 
     15 H2          3.2530   -8.1520   -3.2860 H       1     ****    0.1500 
     16 H3          1.6600   -8.7580   -1.5260 H       1     ****    0.1580 
     17 H4         -0.4410   -6.2230    2.0960 H       1     ****    0.1630 
     18 H5          4.0710   -5.7930   -3.3880 H       1     ****    0.0300 
@<TRIPOS>BOND
     1  2 1 ar
     2  3 2 ar
     3  4 3 ar
     4  5 4 ar
     5  6 5 ar
     6  7 6 ar
     7  8 3 ar
     8  8 7 ar
     9  9 8 ar
    10 10 1 ar
    11 10 9 ar
    12 11 7 1
    13 12 6 1
    14 13 4 1
    15 14 11 1
    16 15 1 1
    17 16 2 1
    18 17 5 1
    19 18 10 1
@<TRIPOS>SUBSTRUCTURE
1     ****    1
@<TRIPOS>MOLECULE
ZINC00001106
25 27 1 0 0 
SMALL
USER_CHARGES


@<TRIPOS>ATOM
      1 C1          5.8670   -3.7680    4.3210 C.ar    1     ****   -0.1320 
      2 C2          5.6820   -5.1180    4.6040 C.ar    1     ****   -0.1110 
      3 C3          4.9450   -5.9200    3.7310 C.ar    1     ****   -0.1270 
      4 C4          4.3830   -5.3800    2.5630 C.ar    1     ****   -0.0070 
      5 C5          3.6390   -6.1760    1.6750 C.ar    1     ****   -0.1070 
      6 C6          3.0790   -5.6380    0.5110 C.ar    1     ****    0.1640 
      7 C7          3.2730   -4.2780    0.2390 C.ar    1     ****   -0.1800 
      8 C8          4.0110   -3.4670    1.1080 C.ar    1     ****   -0.0340 
      9 C9          4.5710   -4.0080    2.2750 C.ar    1     ****   -0.0630 
     10 C10         5.3160   -3.2160    3.1640 C.ar    1     ****   -0.1050 
     11 C11         2.6800   -3.7080   -0.9950 C.2     1     ****    0.6920 
     12 O1          2.8270   -2.5220   -1.2700 O.2     1     ****   -0.6280 
     13 N1          1.9760   -4.6340   -1.7590 N.am    1     ****   -0.3180 
     14 C12         1.8390   -5.9580   -1.4080 C.2     1     ****    0.5290 
     15 N2          2.3440   -6.4840   -0.3410 N.2     1     ****   -0.6190 
     16 N3          1.3750   -4.2080   -2.9420 N.3     1     ****   -0.6110 
     17 H1          0.7490   -3.4390   -2.7020 H       1     ****    0.3610 
     18 H2          2.1090   -3.7980   -3.5220 H       1     ****    0.3600 
     19 H3          6.4400   -3.1440    5.0000 H       1     ****    0.1370 
     20 H4          6.1110   -5.5480    5.5040 H       1     ****    0.1360 
     21 H5          4.8140   -6.9720    3.9730 H       1     ****    0.1390 
     22 H6          3.4900   -7.2340    1.8890 H       1     ****    0.1550 
     23 H7          4.1520   -2.4120    0.8810 H       1     ****    0.1600 
     24 H8          5.4730   -2.1580    2.9630 H       1     ****    0.1380 
     25 H9          1.2530   -6.5670   -2.1140 H       1     ****    0.0710 
@<TRIPOS>BOND
     1  2 1 ar
     2  3 2 ar
     3  4 3 ar
     4  5 4 ar
     5  6 5 ar
     6  7 6 ar
     7  8 7 ar
     8  9 4 ar
     9  9 8 ar
    10 10 1 ar
    11 10 9 ar
    12 11 7 1
    13 12 11 2
    14 13 11 1
    15 14 13 1
    16 15 6 1
    17 15 14 2
    18 16 13 1
    19 17 16 1
    20 18 16 1
    21 19 1 1
    22 20 2 1
    23 21 3 1
    24 22 5 1
    25 23 8 1
    26 24 10 1
    27 25 14 1
@<TRIPOS>SUBSTRUCTURE
1     ****    1
@<TRIPOS>MOLECULE
ZINC00001122
20 21 1 0 0 
SMALL
USER_CHARGES


@<TRIPOS>ATOM
      1 C1          5.5220   -6.0250   -2.1480 C.ar    1     ****   -0.2040 
      2 C2          4.4670   -5.1060   -2.2510 C.ar    1     ****   -0.0880 
      3 C3          3.1550   -5.4980   -1.9650 C.ar    1     ****   -0.0080 
      4 C4          2.9130   -6.8120   -1.5910 C.ar    1     ****   -0.0460 
      5 C5          3.9690   -7.7270   -1.4870 C.ar    1     ****   -0.1060 
      6 C6          5.2700   -7.3400   -1.7560 C.ar    1     ****    0.1350 
      7 O1          6.2790   -8.2480   -1.6310 O.3     1     ****   -0.4920 
      8 C7          3.4770   -9.0610   -1.0160 C.3     1     ****   -0.0240 
      9 C8          1.9760   -8.9470   -1.3120 C.3     1     ****   -0.0810 
     10 C9          1.6180   -7.4580   -1.2000 C.3     1     ****   -0.0370 
     11 CL1         1.8810   -4.3480   -2.0740 Cl      1     ****   -0.0940 
     12 H1          7.1180   -7.8120   -1.8550 H       1     ****    0.4200 
     13 H2          6.5340   -5.6960   -2.3690 H       1     ****    0.1370 
     14 H3          4.6850   -4.0840   -2.5500 H       1     ****    0.1470 
     15 H4          3.9270   -9.8930   -1.5640 H       1     ****    0.0610 
     16 H5          3.6620   -9.1720    0.0570 H       1     ****    0.0610 
     17 H6          1.7860   -9.2850   -2.3400 H       1     ****    0.0470 
     18 H7          1.3700   -9.5730   -0.6500 H       1     ****    0.0470 
     19 H8          1.3600   -7.1900   -0.1700 H       1     ****    0.0630 
     20 H9          0.7950   -7.2030   -1.8730 H       1     ****    0.0630 
@<TRIPOS>BOND
     1  2 1 ar
     2  3 2 ar
     3  4 3 ar
     4  5 4 ar
     5  6 1 ar
     6  6 5 ar
     7  7 6 1
     8  8 5 1
     9  9 8 1
    10 10 4 1
    11 10 9 1
    12 11 3 1
    13 12 7 1
    14 13 1 1
    15 14 2 1
    16 15 8 1
    17 16 8 1
    18 17 9 1
    19 18 9 1
    20 19 10 1
    21 20 10 1
@<TRIPOS>SUBSTRUCTURE
1     ****    1
@<TRIPOS>MOLECULE
ZINC00001131
18 19 1 0 0 
SMALL
USER_CHARGES


@<TRIPOS>ATOM
      1 C1          2.9990   -7.4270   -2.4920 C.ar    1     ****   -0.2310 
      2 C2          2.1020   -7.7520   -1.4840 C.ar    1     ****   -0.0860 
      3 C3          1.6120   -6.7670   -0.5980 C.ar    1     ****   -0.1120 
      4 C4          0.6950   -7.0320    0.4520 C.ar    1     ****    0.0000 
      5 C5          0.2480   -6.0130    1.2950 C.ar    1     ****   -0.0740 
      6 C6          0.7100   -4.7190    1.1000 C.ar    1     ****   -0.0900 
      7 C7          1.6130   -4.4480    0.0690 C.ar    1     ****    0.1160 
      8 C8          2.0790   -5.4460   -0.7910 C.ar    1     ****    0.3870 
      9 N1          2.9510   -5.1340   -1.7730 N.ar    1     ****   -0.6230 
     10 C9          3.3900   -6.1120   -2.5940 C.ar    1     ****    0.4050 
     11 O1          2.0720   -3.1660   -0.1260 O.3     1     ****   -0.4540 
     12 CL1         0.1530   -3.4650    2.1450 Cl      1     ****   -0.0830 
     13 CL2         0.0770   -8.6240    0.7520 Cl      1     ****   -0.0840 
     14 H1          1.6610   -2.5920    0.5440 H       1     ****    0.4300 
     15 H2          3.3770   -8.1810   -3.1730 H       1     ****    0.1500 
     16 H3          1.7910   -8.7900   -1.4000 H       1     ****    0.1550 
     17 H4         -0.4550   -6.2300    2.0960 H       1     ****    0.1650 
     18 H5          4.0890   -5.7930   -3.3600 H       1     ****    0.0300 
@<TRIPOS>BOND
     1  2 1 ar
     2  3 2 ar
     3  4 3 ar
     4  5 4 ar
     5  6 5 ar
     6  7 6 ar
     7  8 3 ar
     8  8 7 ar
     9  9 8 ar
    10 10 1 ar
    11 10 9 ar
    12 11 7 1
    13 12 6 1
    14 13 4 1
    15 14 11 1
    16 15 1 1
    17 16 2 1
    18 17 5 1
    19 18 10 1
@<TRIPOS>SUBSTRUCTURE
1     ****    1
@<TRIPOS>MOLECULE
ZINC00001209
18 19 1 0 0 
SMALL
USER_CHARGES


@<TRIPOS>ATOM
      1 C1          4.3190   -8.9900   -1.9260 C.ar    1     ****   -0.2340 
      2 C2          3.6310   -9.0920   -0.7250 C.ar    1     ****   -0.0870 
      3 C3          2.9690   -7.9760   -0.1670 C.ar    1     ****   -0.1120 
      4 C4          2.2490   -8.0090    1.0550 C.ar    1     ****   -0.0060 
      5 C5          1.6170   -6.8680    1.5510 C.ar    1     ****   -0.0770 
      6 C6          1.6920   -5.6800    0.8400 C.ar    1     ****   -0.2300 
      7 C7          2.4000   -5.6420   -0.3620 C.ar    1     ****    0.1030 
      8 C8          3.0450   -6.7630   -0.8900 C.ar    1     ****    0.3830 
      9 N1          3.7150   -6.6670   -2.0580 N.ar    1     ****   -0.6250 
     10 C9          4.3310   -7.7630   -2.5490 C.ar    1     ****    0.4020 
     11 O1          2.4680   -4.4590   -1.0590 O.3     1     ****   -0.4630 
     12 CL1         2.1100   -9.4560    2.0000 Cl      1     ****   -0.0930 
     13 H1          1.9760   -3.7760   -0.5720 H       1     ****    0.4190 
     14 H2          4.8280   -9.8450   -2.3560 H       1     ****    0.1480 
     15 H3          3.6190  -10.0590   -0.2290 H       1     ****    0.1530 
     16 H4          1.0650   -6.8950    2.4870 H       1     ****    0.1510 
     17 H5          1.1990   -4.7930    1.2280 H       1     ****    0.1420 
     18 H6          4.8500   -7.6180   -3.4900 H       1     ****    0.0270 
@<TRIPOS>BOND
     1  2 1 ar
     2  3 2 ar
     3  4 3 ar
     4  5 4 ar
     5  6 5 ar
     6  7 6 ar
     7  8 3 ar
     8  8 7 ar
     9  9 8 ar
    10 10 1 ar
    11 10 9 ar
    12 11 7 1
    13 12 4 1
    14 13 11 1
    15 14 1 1
    16 15 2 1
    17 16 5 1
    18 17 6 1
    19 18 10 1
@<TRIPOS>SUBSTRUCTURE
1     ****    1
@<TRIPOS>MOLECULE
ZINC00001257
30 32 1 0 0 
SMALL
USER_CHARGES


@<TRIPOS>ATOM
      1 C1         -1.1740    5.1900    5.9170 C.ar    1     ****   -0.1330 
      2 C2         -0.0870    5.3560    5.0600 C.ar    1     ****   -0.1110 
      3 C3          1.1680    5.6860    5.5750 C.ar    1     ****   -0.1280 
      4 C4          1.3390    5.8600    6.9510 C.ar    1     ****    0.0420 
      5 C5          0.2420    5.7110    7.8090 C.ar    1     ****   -0.1320 
      6 C6         -1.0130    5.3620    7.2910 C.ar    1     ****   -0.0950 
      7 C7          0.3440    5.8860    9.2840 C.2     1     ****    0.5390 
      8 N1          0.0970    4.8410    9.9970 N.2     1     ****   -0.5680 
      9 C8          0.1380    4.9520   11.4400 C.3     1     ****    0.0400 
     10 C9          1.5720    5.1010   11.8740 C.2     1     ****    0.6890 
     11 O1          2.1570    4.1990   12.4760 O.2     1     ****   -0.6080 
     12 N2          2.1590    6.3230   11.6440 N.am    1     ****   -0.4730 
     13 C10         1.6500    7.3820   10.8660 C.ar    1     ****    0.0940 
     14 C11         0.7300    7.2300    9.8140 C.ar    1     ****   -0.2040 
     15 C12         0.2550    8.3660    9.1370 C.ar    1     ****   -0.0700 
     16 C13         0.7250    9.6340    9.4790 C.ar    1     ****   -0.0110 
     17 C14         1.6780    9.7860   10.4800 C.ar    1     ****   -0.0820 
     18 C15         2.1420    8.6620   11.1640 C.ar    1     ****   -0.1710 
     19 CL1         0.1420   11.0180    8.6370 Cl      1     ****   -0.0830 
     20 CL2         2.9280    6.2120    7.5290 Cl      1     ****   -0.0780 
     21 H1          3.0290    6.4940   12.1400 H       1     ****    0.3280 
     22 H2         -2.1480    4.9270    5.5140 H       1     ****    0.1400 
     23 H3         -0.2150    5.2200    3.9900 H       1     ****    0.1400 
     24 H4          2.0060    5.7970    4.8910 H       1     ****    0.1510 
     25 H5         -1.8690    5.2320    7.9480 H       1     ****    0.1460 
     26 H6         -0.4790    5.7730   11.8240 H       1     ****    0.0720 
     27 H7         -0.2620    4.0310   11.8790 H       1     ****    0.1090 
     28 H8         -0.4710    8.2710    8.3330 H       1     ****    0.1600 
     29 H9          2.0620   10.7680   10.7430 H       1     ****    0.1530 
     30 H10         2.8770    8.8020   11.9550 H       1     ****    0.1450 
@<TRIPOS>BOND
     1  2 1 ar
     2  3 2 ar
     3  4 3 ar
     4  5 4 ar
     5  6 1 ar
     6  6 5 ar
     7  7 5 1
     8  8 7 2
     9  9 8 1
    10 10 9 1
    11 11 10 2
    12 12 10 1
    13 13 12 1
    14 14 7 1
    15 14 13 ar
    16 15 14 ar
    17 16 15 ar
    18 17 16 ar
    19 18 13 ar
    20 18 17 ar
    21 19 16 1
    22 20 4 1
    23 21 12 1
    24 22 1 1
    25 23 2 1
    26 24 3 1
    27 25 6 1
    28 26 9 1
    29 27 9 1
    30 28 15 1
    31 29 17 1
    32 30 18 1
@<TRIPOS>SUBSTRUCTURE
1     ****    1
@<TRIPOS>MOLECULE
ZINC00001261
42 45 1 0 0 
SMALL
USER_CHARGES


@<TRIPOS>ATOM
      1 C1          5.8610  -10.0130    0.7620 C.ar    1     ****   -0.2170 
      2 C2          5.5240  -10.0280    2.1100 C.ar    1     ****   -0.1010 
      3 C3          5.2730   -8.8350    2.8100 C.ar    1     ****   -0.1510 
      4 C4          5.3710   -7.6440    2.0760 C.ar    1     ****    0.4160 
      5 N1          5.7230   -7.6110    0.7610 N.ar    1     ****   -0.6670 
      6 C5          5.9510   -8.7860    0.1390 C.ar    1     ****    0.3960 
      7 C6          5.1710   -6.3080    2.6940 C.2     1     ****   -0.0120 
      8 C7          4.2360   -5.4400    2.2180 C.2     1     ****   -0.1730 
      9 C8          3.3120   -5.7170    1.0370 C.3     1     ****   -0.0500 
     10 C9          1.8440   -5.5720    1.4290 C.3     1     ****    0.1080 
     11 C10         2.4680   -3.9430    3.2120 C.3     1     ****    0.1120 
     12 C11         3.9370   -4.0720    2.8260 C.3     1     ****   -0.0620 
     13 C12         5.9320   -5.9750    3.9220 C.ar    1     ****   -0.0980 
     14 C13         6.9690   -5.0320    3.9050 C.ar    1     ****   -0.1000 
     15 C14         7.6780   -4.7530    5.0730 C.ar    1     ****   -0.1240 
     16 C15         7.3580   -5.4240    6.2530 C.ar    1     ****    0.0320 
     17 C16         6.3420   -6.3800    6.2760 C.ar    1     ****   -0.1190 
     18 C17         5.6250   -6.6670    5.1070 C.ar    1     ****   -0.0590 
     19 C18         4.5540   -7.7310    5.0950 C.3     1     ****   -0.0330 
     20 C19         4.9740   -8.9670    4.2900 C.3     1     ****   -0.0360 
     21 CL1         8.2360   -5.0780    7.6940 Cl      1     ****   -0.0580 
     22 H1          6.0560  -10.9320    0.2230 H       1     ****    0.1610 
     23 H2          5.4660  -10.9850    2.6250 H       1     ****    0.1520 
     24 H3          6.2200   -8.7100   -0.9100 H       1     ****    0.0370 
     25 H4          3.5550   -5.0120    0.2310 H       1     ****    0.0830 
     26 H5          3.4330   -6.7190    0.6180 H       1     ****    0.1120 
     27 H6          1.1880   -5.6540    0.5580 H       1     ****    0.1010 
     28 H7          1.5420   -6.3100    2.1800 H       1     ****    0.1040 
     29 H8          2.2300   -2.9270    3.5430 H       1     ****    0.1020 
     30 H9          2.1790   -4.6550    3.9930 H       1     ****    0.1070 
     31 H10         4.5320   -3.8540    3.7150 H       1     ****    0.1130 
     32 H11         4.1970   -3.3020    2.0880 H       1     ****    0.0760 
     33 H12         7.2280   -4.5110    2.9870 H       1     ****    0.1480 
     34 H13         8.4750   -4.0140    5.0500 H       1     ****    0.1620 
     35 H14         6.1120   -6.9100    7.1980 H       1     ****    0.1590 
     36 H15         4.3340   -8.0420    6.1240 H       1     ****    0.0660 
     37 H16         3.6160   -7.3110    4.7090 H       1     ****    0.0380 
     38 H17         4.1680   -9.7060    4.3970 H       1     ****    0.0620 
     39 H18         5.8660   -9.3980    4.7640 H       1     ****    0.0750 
     40 N2          1.6150   -4.2190    2.0170 N.4     1     ****   -0.7620 
     41 H19         0.6240   -4.1260    2.2790 H       1     ****    0.4510 
     42 H20         1.7820   -3.4990    1.3000 H       1     ****    0.4490 
@<TRIPOS>BOND
     1  2 1 ar
     2  3 2 ar
     3  4 3 ar
     4  5 4 ar
     5  6 1 ar
     6  6 5 ar
     7  7 4 1
     8  8 7 2
     9  9 8 1
    10 10 9 1
    11 12 8 1
    12 12 11 1
    13 13 7 1
    14 14 13 ar
    15 15 14 ar
    16 16 15 ar
    17 17 16 ar
    18 18 13 ar
    19 18 17 ar
    20 19 18 1
    21 20 3 1
    22 20 19 1
    23 21 16 1
    24 22 1 1
    25 23 2 1
    26 24 6 1
    27 25 9 1
    28 26 9 1
    29 27 10 1
    30 28 10 1
    31 29 11 1
    32 30 11 1
    33 31 12 1
    34 32 12 1
    35 33 14 1
    36 34 15 1
    37 35 17 1
    38 36 19 1
    39 37 19 1
    40 38 20 1
    41 39 20 1
    42 40 10 1
    43 40 11 1
    44 41 40 1
    45 42 40 1
@<TRIPOS>SUBSTRUCTURE
1     ****    1
@<TRIPOS>MOLECULE
ZINC00001269
17 18 1 0 0 
SMALL
USER_CHARGES


@<TRIPOS>ATOM
      1 C1          4.7900   -5.8750   -0.8580 C.2     1     ****   -0.3210 
      2 C2          3.6230   -5.9010   -1.6340 C.2     1     ****   -0.0320 
      3 C3          3.0100   -7.0140   -2.1430 C.2     1     ****    0.1850 
      4 C4          3.5840   -8.3140   -1.8820 C.2     1     ****    0.6530 
      5 O1          3.0990   -9.3600   -2.3000 O.2     1     ****   -0.6140 
      6 N1          4.7500   -8.2500   -1.1030 N.am    1     ****   -0.4850 
      7 C5          5.3490   -7.0840   -0.6000 C.2     1     ****    0.3280 
      8 N2          6.4900   -7.1910    0.1470 N.3     1     ****   -0.8880 
      9 N3          1.8920   -6.6820   -2.8530 N.2     1     ****   -0.5860 
     10 C6          1.8360   -5.3650   -2.7690 C.2     1     ****    0.3830 
     11 N4          2.8740   -4.8410   -2.0330 N.pl3   1     ****   -0.3350 
     12 H1          5.2100   -9.1260   -0.8790 H       1     ****    0.3280 
     13 H2          6.8850   -8.1050    0.3250 H       1     ****    0.4290 
     14 H3          6.9370   -6.3620    0.5190 H       1     ****    0.4390 
     15 H4          3.0360   -3.8610   -1.8360 H       1     ****    0.3050 
     16 H5          5.2110   -4.9440   -0.4940 H       1     ****    0.1490 
     17 H6          1.0790   -4.7340   -3.2130 H       1     ****    0.0630 
@<TRIPOS>BOND
     1  2 1 1
     2  3 2 ar
     3  4 3 1
     4  5 4 2
     5  6 4 1
     6  7 1 2
     7  7 6 1
     8  8 7 1
     9  9 3 1
    10 10 9 2
    11 11 2 1
    12 11 10 1
    13 12 6 1
    14 13 8 1
    15 14 8 1
    16 15 11 1
    17 16 1 1
    18 17 10 1
@<TRIPOS>SUBSTRUCTURE
1     ****    1
@<TRIPOS>MOLECULE
ZINC00001273
21 22 1 0 0 
SMALL
USER_CHARGES


@<TRIPOS>ATOM
      1 C1          0.6710   -5.6140   -3.1100 C.3     1     ****   -0.1470 
      2 C2          1.2850   -5.4060   -1.7560 C.2     1     ****    0.6900 
      3 N1          2.0890   -6.2910   -1.2670 N.2     1     ****   -0.6490 
      4 C3          2.7650   -6.0840   -0.0520 C.ar    1     ****    0.2650 
      5 C4          3.7430   -7.0260    0.2990 C.ar    1     ****   -0.1230 
      6 C5          4.4890   -6.8980    1.4740 C.ar    1     ****   -0.0580 
      7 C6          4.2630   -5.8150    2.3210 C.ar    1     ****   -0.0160 
      8 C7          3.2970   -4.8650    2.0030 C.ar    1     ****   -0.0060 
      9 C8          2.5610   -5.0150    0.8230 C.ar    1     ****   -0.4230 
     10 S1          1.3300   -3.8180    0.4730 S.o2    1     ****    1.5230 
     11 O1          1.9750   -2.5200    0.4880 O.3     1     ****   -0.6450 
     12 O2          0.1970   -4.1170    1.3250 O.3     1     ****   -0.6390 
     13 N2          0.9300   -4.1900   -1.1240 N.pl3   1     ****   -0.8520 
     14 CL1         5.1800   -5.6540    3.7680 Cl      1     ****   -0.0760 
     15 H1          0.4590   -3.4610   -1.6710 H       1     ****    0.4610 
     16 H2          0.9230   -6.6030   -3.5010 H       1     ****    0.0860 
     17 H3         -0.4160   -5.5200   -3.0390 H       1     ****    0.0660 
     18 H4          1.0460   -4.8500   -3.7980 H       1     ****    0.0660 
     19 H5          3.9350   -7.8750   -0.3550 H       1     ****    0.1620 
     20 H6          5.2400   -7.6460    1.7130 H       1     ****    0.1550 
     21 H7          3.1130   -4.0240    2.6660 H       1     ****    0.1620 
@<TRIPOS>BOND
     1  2 1 1
     2  3 2 2
     3  4 3 1
     4  5 4 ar
     5  6 5 ar
     6  7 6 ar
     7  8 7 ar
     8  9 4 ar
     9  9 8 ar
    10 10 9 1
    11 11 10 1
    12 12 10 1
    13 13 2 1
    14 13 10 1
    15 14 7 1
    16 15 13 1
    17 16 1 1
    18 17 1 1
    19 18 1 1
    20 19 5 1
    21 20 6 1
    22 21 8 1
@<TRIPOS>SUBSTRUCTURE
1     ****    1
@<TRIPOS>MOLECULE
ZINC00001318
19 20 1 0 0 
SMALL
USER_CHARGES


@<TRIPOS>ATOM
      1 C1          5.0900   -9.0630   -1.4010 C.ar    1     ****   -0.1350 
      2 C2          4.4130   -8.4920   -2.4690 C.ar    1     ****   -0.1110 
      3 C3          3.3400   -7.6280   -2.2350 C.ar    1     ****   -0.1280 
      4 C4          2.9100   -7.3090   -0.9220 C.ar    1     ****    0.0170 
      5 C5          3.6170   -7.9050    0.1550 C.ar    1     ****   -0.0690 
      6 C6          4.6940   -8.7710   -0.0980 C.ar    1     ****   -0.1080 
      7 C7          3.2420   -7.6310    1.4790 C.ar    1     ****   -0.0650 
      8 C8          2.1800   -6.7770    1.7630 C.ar    1     ****   -0.2020 
      9 C9          1.4760   -6.1840    0.7210 C.ar    1     ****    0.1550 
     10 C10         1.8280   -6.4390   -0.6120 C.ar    1     ****   -0.0590 
     11 BR1         0.8140   -5.5880   -1.9930 Br      1     ****   -0.0670 
     12 O1          0.4330   -5.3460    1.0090 O.3     1     ****   -0.4810 
     13 H1          0.3320   -5.2850    1.9740 H       1     ****    0.4230 
     14 H2          5.9240   -9.7340   -1.5800 H       1     ****    0.1350 
     15 H3          4.7170   -8.7150   -3.4880 H       1     ****    0.1350 
     16 H4          2.8450   -7.2080   -3.1070 H       1     ****    0.1500 
     17 H5          5.2390   -9.2300    0.7240 H       1     ****    0.1330 
     18 H6          3.7800   -8.0840    2.3100 H       1     ****    0.1390 
     19 H7          1.9150   -6.5850    2.7990 H       1     ****    0.1380 
@<TRIPOS>BOND
     1  2 1 ar
     2  3 2 ar
     3  4 3 ar
     4  5 4 ar
     5  6 1 ar
     6  6 5 ar
     7  7 5 ar
     8  8 7 ar
     9  9 8 ar
    10 10 4 ar
    11 10 9 ar
    12 11 10 1
    13 12 9 1
    14 13 12 1
    15 14 1 1
    16 15 2 1
    17 16 3 1
    18 17 6 1
    19 18 7 1
    20 19 8 1
@<TRIPOS>SUBSTRUCTURE
1     ****    1
@<TRIPOS>MOLECULE
ZINC00001370
32 35 1 0 0 
SMALL
USER_CHARGES


@<TRIPOS>ATOM
      1 C1         -0.1740    7.0490    7.1760 C.ar    1     ****   -0.1130 
      2 C2         -0.5380    5.7060    7.0760 C.ar    1     ****   -0.1380 
      3 C3         -1.5130    5.3110    6.1590 C.ar    1     ****   -0.0860 
      4 C4         -2.1300    6.2680    5.3460 C.ar    1     ****   -0.1500 
      5 C5         -1.7550    7.6140    5.4350 C.ar    1     ****   -0.1080 
      6 C6         -0.7790    8.0000    6.3550 C.ar    1     ****   -0.1350 
      7 C7         -3.1620    5.8300    4.3560 C.2     1     ****    0.5370 
      8 N1         -2.8820    4.7690    3.6790 N.2     1     ****   -0.5780 
      9 C8         -3.8050    4.2770    2.6730 C.3     1     ****    0.0870 
     10 C9         -3.9400    5.2570    1.5740 C.2     1     ****    0.3630 
     11 N2         -3.6630    5.0730    0.3010 N.2     1     ****   -0.3300 
     12 N3         -4.0740    6.1900   -0.3840 N.2     1     ****   -0.3400 
     13 C10        -4.5890    7.0230    0.4900 C.2     1     ****    0.3660 
     14 N4         -4.4930    6.5040    1.7560 N.pl3   1     ****   -0.2750 
     15 C11        -4.9400    7.0620    2.9740 C.ar    1     ****    0.0320 
     16 C12        -4.4050    6.6620    4.2150 C.ar    1     ****   -0.1790 
     17 C13        -4.9800    7.1550    5.3990 C.ar    1     ****   -0.0820 
     18 C14        -6.0290    8.0730    5.3450 C.ar    1     ****    0.0050 
     19 C15        -6.5170    8.5150    4.1200 C.ar    1     ****   -0.0950 
     20 C16        -5.9740    8.0120    2.9370 C.ar    1     ****   -0.1410 
     21 CL1        -6.7110    8.6790    6.8060 Cl      1     ****   -0.0710 
     22 H1          0.5860    7.3530    7.8900 H       1     ****    0.1350 
     23 H2         -0.0620    4.9660    7.7130 H       1     ****    0.1370 
     24 H3         -1.7870    4.2610    6.0950 H       1     ****    0.1490 
     25 H4         -2.2010    8.3680    4.7930 H       1     ****    0.1380 
     26 H5         -0.4870    9.0440    6.4280 H       1     ****    0.1370 
     27 H6         -3.4080    3.3380    2.2720 H       1     ****    0.1110 
     28 H7         -4.7800    4.0320    3.1120 H       1     ****    0.0690 
     29 H8         -5.0020    7.9960    0.2600 H       1     ****    0.0760 
     30 H9         -4.6030    6.8390    6.3700 H       1     ****    0.1690 
     31 H10        -7.3290    9.2350    4.0710 H       1     ****    0.1590 
     32 H11        -6.4130    8.3490    2.0010 H       1     ****    0.1520 
@<TRIPOS>BOND
     1  2 1 ar
     2  3 2 ar
     3  4 3 ar
     4  5 4 ar
     5  6 1 ar
     6  6 5 ar
     7  7 4 1
     8  8 7 2
     9  9 8 1
    10 10 9 1
    11 11 10 2
    12 12 11 1
    13 13 12 2
    14 14 10 1
    15 14 13 1
    16 15 14 1
    17 16 7 1
    18 16 15 ar
    19 17 16 ar
    20 18 17 ar
    21 19 18 ar
    22 20 15 ar
    23 20 19 ar
    24 21 18 1
    25 22 1 1
    26 23 2 1
    27 24 3 1
    28 25 5 1
    29 26 6 1
    30 27 9 1
    31 28 9 1
    32 29 13 1
    33 30 17 1
    34 31 19 1
    35 32 20 1
@<TRIPOS>SUBSTRUCTURE
1     ****    1
@<TRIPOS>MOLECULE
ZINC00001649
21 22 1 0 0 
SMALL
USER_CHARGES


@<TRIPOS>ATOM
      1 C1          1.4320   -4.2380   -3.6500 C.3     1     ****   -0.1460 
      2 C2          1.4180   -4.8880   -2.2970 C.2     1     ****    0.6860 
      3 N1          2.0560   -5.9950   -2.1050 N.2     1     ****   -0.6490 
      4 C3          2.1560   -6.5770   -0.8300 C.ar    1     ****    0.2640 
      5 C4          3.0140   -7.6780   -0.6990 C.ar    1     ****   -0.1310 
      6 C5          3.2010   -8.3110    0.5340 C.ar    1     ****   -0.0610 
      7 C6          2.5290   -7.8510    1.6630 C.ar    1     ****   -0.1590 
      8 C7          1.6690   -6.7620    1.5600 C.ar    1     ****   -0.0090 
      9 C8          1.4910   -6.1430    0.3200 C.ar    1     ****   -0.4350 
     10 S1          0.3730   -4.7970    0.2310 S.o2    1     ****    1.5250 
     11 O1          0.7970   -3.8180    1.2110 O.3     1     ****   -0.6490 
     12 O2         -0.9630   -5.3580    0.2400 O.3     1     ****   -0.6440 
     13 N2          0.6970   -4.1790   -1.3060 N.pl3   1     ****   -0.8530 
     14 H1          0.4060   -3.2140   -1.4940 H       1     ****    0.4590 
     15 H2          1.9340   -4.8770   -4.3810 H       1     ****    0.0850 
     16 H3          0.4050   -4.0530   -3.9790 H       1     ****    0.0640 
     17 H4          1.9580   -3.2820   -3.5870 H       1     ****    0.0650 
     18 H5          3.5530   -8.0500   -1.5680 H       1     ****    0.1560 
     19 H6          3.8720   -9.1620    0.6090 H       1     ****    0.1400 
     20 H7          2.6750   -8.3430    2.6210 H       1     ****    0.1440 
     21 H8          1.1410   -6.4120    2.4430 H       1     ****    0.1470 
@<TRIPOS>BOND
     1  2 1 1
     2  3 2 2
     3  4 3 1
     4  5 4 ar
     5  6 5 ar
     6  7 6 ar
     7  8 7 ar
     8  9 4 ar
     9  9 8 ar
    10 10 9 1
    11 11 10 1
    12 12 10 1
    13 13 2 1
    14 13 10 1
    15 14 13 1
    16 15 1 1
    17 16 1 1
    18 17 1 1
    19 18 5 1
    20 19 6 1
    21 20 7 1
    22 21 8 1
@<TRIPOS>SUBSTRUCTURE
1     ****    1
@<TRIPOS>MOLECULE
ZINC00001677
21 22 1 0 0 
SMALL
USER_CHARGES


@<TRIPOS>ATOM
      1 C1          1.3650   -4.1120    2.7420 C.3     1     ****   -0.0670 
      2 C2          1.6170   -4.9820    1.5490 C.2     1     ****   -0.1160 
      3 C3          2.2770   -6.1430    1.6300 C.2     1     ****   -0.1970 
      4 C4          2.5280   -7.0030    0.4570 C.2     1     ****    0.5660 
      5 O1          3.1370   -8.0590    0.5770 O.2     1     ****   -0.5140 
      6 C5          2.0210   -6.5450   -0.8480 C.ar    1     ****   -0.1330 
      7 C6          2.2360   -7.3290   -1.9870 C.ar    1     ****   -0.0860 
      8 C7          1.7600   -6.9020   -3.2270 C.ar    1     ****   -0.1150 
      9 C8          1.0700   -5.6960   -3.3320 C.ar    1     ****   -0.1170 
     10 C9          0.8540   -4.9120   -2.1980 C.ar    1     ****   -0.0850 
     11 C10         1.3300   -5.3360   -0.9520 C.ar    1     ****   -0.1350 
     12 C11         1.0960   -4.4980    0.2410 C.2     1     ****    0.5670 
     13 O2          0.4890   -3.4360    0.1510 O.2     1     ****   -0.5110 
     14 H1          1.7820   -4.5440    3.6590 H       1     ****    0.0480 
     15 H2          1.8230   -3.1270    2.6020 H       1     ****    0.0660 
     16 H3          0.2900   -3.9780    2.8990 H       1     ****    0.0660 
     17 H4          2.6620   -6.5050    2.5790 H       1     ****    0.1580 
     18 H5          2.7720   -8.2730   -1.9260 H       1     ****    0.1610 
     19 H6          1.9260   -7.5110   -4.1110 H       1     ****    0.1420 
     20 H7          0.6990   -5.3650   -4.2980 H       1     ****    0.1420 
     21 H8          0.3130   -3.9750   -2.3030 H       1     ****    0.1600 
@<TRIPOS>BOND
     1  2 1 1
     2  3 2 2
     3  4 3 1
     4  5 4 2
     5  6 4 1
     6  7 6 ar
     7  8 7 ar
     8  9 8 ar
     9 10 9 ar
    10 11 6 ar
    11 11 10 ar
    12 12 2 1
    13 12 11 1
    14 13 12 2
    15 14 1 1
    16 15 1 1
    17 16 1 1
    18 17 3 1
    19 18 7 1
    20 19 8 1
    21 20 9 1
    22 21 10 1
@<TRIPOS>SUBSTRUCTURE
1     ****    1
@<TRIPOS>MOLECULE
ZINC00001707
20 21 1 0 0 
SMALL
USER_CHARGES


@<TRIPOS>ATOM
      1 C1          1.9840   -4.1100    0.8750 C.3     1     ****   -0.0370 
      2 C2          2.2800   -5.3310    0.0680 C.2     1     ****   -0.2610 
      3 C3          1.8410   -5.5270   -1.1820 C.2     1     ****    0.0700 
      4 O1          2.0790   -6.6240   -1.9720 O.3     1     ****   -0.2220 
      5 C4          2.8450   -7.6340   -1.4450 C.ar    1     ****    0.1370 
      6 C5          3.0820   -8.7450   -2.2540 C.ar    1     ****   -0.1580 
      7 C6          3.8540   -9.8020   -1.7710 C.ar    1     ****   -0.0780 
      8 C7          4.3860   -9.7490   -0.4820 C.ar    1     ****   -0.1660 
      9 C8          4.1500   -8.6390    0.3300 C.ar    1     ****   -0.0470 
     10 C9          3.3770   -7.5810   -0.1570 C.ar    1     ****   -0.2160 
     11 C10         3.1120   -6.3970    0.6800 C.2     1     ****    0.5910 
     12 O2          3.5570   -6.3030    1.8170 O.2     1     ****   -0.5420 
     13 H1          1.3640   -3.3970    0.3220 H       1     ****    0.0340 
     14 H2          1.4460   -4.3780    1.7910 H       1     ****    0.0580 
     15 H3          2.9120   -3.6000    1.1530 H       1     ****    0.0590 
     16 H4          1.2290   -4.8140   -1.7180 H       1     ****    0.1800 
     17 H5          2.6710   -8.7930   -3.2590 H       1     ****    0.1550 
     18 H6          4.0400  -10.6690   -2.4000 H       1     ****    0.1400 
     19 H7          4.9870  -10.5750   -0.1100 H       1     ****    0.1420 
     20 H8          4.5720   -8.6130    1.3310 H       1     ****    0.1610 
@<TRIPOS>BOND
     1  2 1 1
     2  3 2 2
     3  4 3 1
     4  5 4 1
     5  6 5 ar
     6  7 6 ar
     7  8 7 ar
     8  9 8 ar
     9 10 5 ar
    10 10 9 ar
    11 11 2 1
    12 11 10 1
    13 12 11 2
    14 13 1 1
    15 14 1 1
    16 15 1 1
    17 16 3 1
    18 17 6 1
    19 18 7 1
    20 19 8 1
    21 20 9 1
@<TRIPOS>SUBSTRUCTURE
1     ****    1
@<TRIPOS>MOLECULE
ZINC00001715
15 15 1 0 0 
SMALL
USER_CHARGES


@<TRIPOS>ATOM
      1 C1          7.1320   -8.5230   -1.3180 C.3     1     ****   -0.0800 
      2 C2          5.7270   -8.9500   -1.0270 C.2     1     ****    0.0900 
      3 C3          5.3370  -10.2320   -1.0440 C.2     1     ****   -0.3080 
      4 C4          3.9260  -10.5770   -0.7450 C.2     1     ****    0.7040 
      5 O1          3.5490  -11.7450   -0.7550 O.2     1     ****   -0.5980 
      6 N1          3.1060   -9.5000   -0.4640 N.am    1     ****   -0.5410 
      7 C5          3.5080   -8.1790   -0.4460 C.2     1     ****    0.5510 
      8 S1          2.4470   -6.9380   -0.0960 S.2     1     ****   -0.5010 
      9 N2          4.8320   -7.9470   -0.7350 N.am    1     ****   -0.4290 
     10 H1          2.1330   -9.6990   -0.2540 H       1     ****    0.3640 
     11 H2          5.1670   -6.9870   -0.7320 H       1     ****    0.3630 
     12 H3          7.7810   -9.3770   -1.5400 H       1     ****    0.0730 
     13 H4          7.1560   -7.8510   -2.1820 H       1     ****    0.0660 
     14 H5          7.5570   -7.9960   -0.4570 H       1     ****    0.0670 
     15 H6          6.0150  -11.0470   -1.2700 H       1     ****    0.1800 
@<TRIPOS>BOND
     1  2 1 1
     2  3 2 2
     3  4 3 1
     4  5 4 2
     5  6 4 1
     6  7 6 1
     7  8 7 2
     8  9 2 1
     9  9 7 1
    10 10 6 1
    11 11 9 1
    12 12 1 1
    13 13 1 1
    14 14 1 1
    15 15 3 1
@<TRIPOS>SUBSTRUCTURE
1     ****    1
@<TRIPOS>MOLECULE
ZINC00001746
29 31 1 0 0 
SMALL
USER_CHARGES


@<TRIPOS>ATOM
      1 C1          4.2190   -9.1880    0.2260 C.ar    1     ****   -0.1310 
      2 C2          4.5370   -9.1450   -1.1310 C.ar    1     ****   -0.1030 
      3 C3          4.7010   -7.9150   -1.7720 C.ar    1     ****   -0.0950 
      4 C4          4.5480   -6.7150   -1.0670 C.ar    1     ****    0.1030 
      5 C5          4.2310   -6.7780    0.2830 C.ar    1     ****   -0.1650 
      6 C6          4.0640   -8.0020    0.9400 C.ar    1     ****   -0.0680 
      7 C7          4.0800   -5.5030    0.9850 C.2     1     ****    0.7190 
      8 O1          3.8000   -5.4980    2.1810 O.2     1     ****   -0.5620 
      9 N1          4.2780   -4.3830    0.1930 N.am    1     ****   -0.1670 
     10 N2          4.5890   -4.4230   -1.1370 N.2     1     ****   -0.0460 
     11 N3          4.7210   -5.5050   -1.7490 N.2     1     ****   -0.2220 
     12 N4          4.1450   -3.1310    0.8160 N.3     1     ****   -0.4120 
     13 C8          5.3980   -2.3660    0.8060 C.3     1     ****    0.1000 
     14 C9          5.2020   -1.0510    1.5570 C.3     1     ****    0.1280 
     15 O2          4.1380   -0.2940    0.9750 O.3     1     ****   -0.4130 
     16 C10         2.9110   -1.0270    1.0210 C.3     1     ****    0.1280 
     17 C11         3.0420   -2.3410    0.2540 C.3     1     ****    0.1000 
     18 H1          4.0920  -10.1440    0.7250 H       1     ****    0.1450 
     19 H2          4.6580  -10.0690   -1.6900 H       1     ****    0.1430 
     20 H3          4.9490   -7.8980   -2.8310 H       1     ****    0.1590 
     21 H4          3.8160   -8.0440    1.9970 H       1     ****    0.1640 
     22 H5          6.1990   -2.9390    1.2880 H       1     ****    0.0710 
     23 H6          5.7080   -2.1490   -0.2250 H       1     ****    0.0540 
     24 H7          4.9900   -1.2210    2.6200 H       1     ****    0.0490 
     25 H8          6.1130   -0.4470    1.4940 H       1     ****    0.0730 
     26 H9          2.6250   -1.1960    2.0660 H       1     ****    0.0490 
     27 H10         2.1350   -0.4040    0.5620 H       1     ****    0.0730 
     28 H11         3.2260   -2.1230   -0.8060 H       1     ****    0.0540 
     29 H12         2.1000   -2.8960    0.3270 H       1     ****    0.0710 
@<TRIPOS>BOND
     1  2 1 ar
     2  3 2 ar
     3  4 3 ar
     4  5 4 ar
     5  6 1 ar
     6  6 5 ar
     7  7 5 1
     8  8 7 2
     9  9 7 1
    10 10 9 1
    11 11 4 1
    12 11 10 2
    13 12 9 1
    14 13 12 1
    15 14 13 1
    16 15 14 1
    17 16 15 1
    18 17 12 1
    19 17 16 1
    20 18 1 1
    21 19 2 1
    22 20 3 1
    23 21 6 1
    24 22 13 1
    25 23 13 1
    26 24 14 1
    27 25 14 1
    28 26 16 1
    29 27 16 1
    30 28 17 1
    31 29 17 1
@<TRIPOS>SUBSTRUCTURE
1     ****    1
@<TRIPOS>MOLECULE
ZINC00001795
13 13 1 0 0 
SMALL
USER_CHARGES


@<TRIPOS>ATOM
      1 C1          6.3200   -9.5720    0.4100 C.ar    1     ****   -0.2790 
      2 C2          5.3240   -8.6440    0.1150 C.ar    1     ****   -0.0820 
      3 C3          4.2580   -8.9940   -0.7200 C.ar    1     ****   -0.2310 
      4 C4          4.2590  -10.2940   -1.2220 C.ar    1     ****    0.4030 
      5 N1          5.2100  -11.2210   -0.9560 N.ar    1     ****   -0.7080 
      6 C5          6.2170  -10.8350   -0.1460 C.ar    1     ****    0.3550 
      7 C6          3.1650   -8.0200   -1.0610 C.2     1     ****    0.9120 
      8 O1          3.2460   -6.8560   -0.5580 O.co2   1     ****   -0.8300 
      9 H1          7.1500   -9.3110    1.0560 H       1     ****    0.1120 
     10 H2          5.3910   -7.6470    0.5440 H       1     ****    0.1530 
     11 H3          3.4680  -10.6480   -1.8780 H       1     ****    0.0370 
     12 H4          6.9680  -11.5930    0.0540 H       1     ****   -0.0140 
     13 O2          2.2390   -8.4320   -1.8280 O.co2   1     ****   -0.8280 
@<TRIPOS>BOND
     1  2 1 ar
     2  3 2 ar
     3  4 3 ar
     4  5 4 ar
     5  6 1 ar
     6  6 5 ar
     7  7 3 1
     8  8 7 1
     9  9 1 1
    10 10 2 1
    11 11 4 1
    12 12 6 1
    13 13 7 2
@<TRIPOS>SUBSTRUCTURE
1     ****    1
@<TRIPOS>MOLECULE
ZINC00001831
30 32 1 0 0 
SMALL
USER_CHARGES


@<TRIPOS>ATOM
      1 C1          6.0150   -9.4690    1.3520 C.ar    1     ****   -0.1140 
      2 C2          6.1020   -8.8100    0.1260 C.ar    1     ****   -0.1390 
      3 C3          5.6600   -7.4920    0.0070 C.ar    1     ****   -0.0870 
      4 C4          5.1390   -6.8300    1.1240 C.ar    1     ****   -0.1470 
      5 C5          5.0390   -7.4950    2.3510 C.ar    1     ****   -0.1050 
      6 C6          5.4820   -8.8140    2.4620 C.ar    1     ****   -0.1360 
      7 C7          4.6570   -5.4240    0.9790 C.2     1     ****    0.5420 
      8 N1          3.9550   -5.1630   -0.0710 N.2     1     ****   -0.5810 
      9 C8          3.4590   -3.8160   -0.2690 C.3     1     ****    0.0430 
     10 C9          2.3550   -3.5630    0.7270 C.2     1     ****    0.6870 
     11 O1          1.1810   -3.4600    0.3690 O.2     1     ****   -0.6080 
     12 N2          2.7400   -3.3630    2.0330 N.am    1     ****   -0.4730 
     13 C10         4.0240   -3.5580    2.5790 C.ar    1     ****    0.0870 
     14 C11         4.9850   -4.4400    2.0550 C.ar    1     ****   -0.2090 
     15 C12         6.2670   -4.4910    2.6280 C.ar    1     ****   -0.0710 
     16 C13         6.5640   -3.7160    3.7490 C.ar    1     ****   -0.0140 
     17 C14         5.5950   -2.8950    4.3150 C.ar    1     ****   -0.0840 
     18 C15         4.3280   -2.8230    3.7350 C.ar    1     ****   -0.1720 
     19 CL1         8.1340   -3.7960    4.4520 Cl      1     ****   -0.0810 
     20 H1          2.0330   -2.9660    2.6460 H       1     ****    0.3260 
     21 H2          6.3570  -10.4960    1.4410 H       1     ****    0.1340 
     22 H3          6.5120   -9.3250   -0.7380 H       1     ****    0.1360 
     23 H4          5.7360   -6.9920   -0.9550 H       1     ****    0.1480 
     24 H5          4.6090   -7.0100    3.2230 H       1     ****    0.1410 
     25 H6          5.4070   -9.3330    3.4140 H       1     ****    0.1360 
     26 H7          4.2430   -3.0550   -0.1960 H       1     ****    0.0710 
     27 H8          3.0390   -3.7370   -1.2780 H       1     ****    0.1080 
     28 H9          7.0310   -5.1460    2.2150 H       1     ****    0.1640 
     29 H10         5.8130   -2.2990    5.1970 H       1     ****    0.1540 
     30 H11         3.5900   -2.1570    4.1770 H       1     ****    0.1450 
@<TRIPOS>BOND
     1  2 1 ar
     2  3 2 ar
     3  4 3 ar
     4  5 4 ar
     5  6 1 ar
     6  6 5 ar
     7  7 4 1
     8  8 7 2
     9  9 8 1
    10 10 9 1
    11 11 10 2
    12 12 10 1
    13 13 12 1
    14 14 7 1
    15 14 13 ar
    16 15 14 ar
    17 16 15 ar
    18 17 16 ar
    19 18 13 ar
    20 18 17 ar
    21 19 16 1
    22 20 12 1
    23 21 1 1
    24 22 2 1
    25 23 3 1
    26 24 5 1
    27 25 6 1
    28 26 9 1
    29 27 9 1
    30 28 15 1
    31 29 17 1
    32 30 18 1
@<TRIPOS>SUBSTRUCTURE
1     ****    1
@<TRIPOS>MOLECULE
ZINC00001872
14 14 1 0 0 
SMALL
USER_CHARGES


@<TRIPOS>ATOM
      1 C1          5.6010  -10.1110   -2.5150 C.ar    1     ****   -0.1330 
      2 C2          4.2430  -10.0240   -2.2250 C.ar    1     ****   -0.1360 
      3 C3          3.7710   -9.0930   -1.2930 C.ar    1     ****   -0.0990 
      4 C4          4.7040   -8.2570   -0.6670 C.ar    1     ****   -0.1790 
      5 N1          6.0630   -8.3310   -0.9470 N.ar    1     ****    0.5090 
      6 C5          6.4970   -9.2630   -1.8730 C.ar    1     ****   -0.2470 
      7 O1          6.8910   -7.5610   -0.3650 O.3     1     ****   -0.6450 
      8 C6          2.3040   -8.9860   -0.9670 C.2     1     ****    0.9150 
      9 O2          1.5140   -9.7760   -1.5730 O.co2   1     ****   -0.8170 
     10 H1          5.9600  -10.8360   -3.2390 H       1     ****    0.1240 
     11 H2          3.5560  -10.6940   -2.7360 H       1     ****    0.1640 
     12 H3          4.4540   -7.5030    0.0670 H       1     ****    0.2010 
     13 H4          7.5630   -9.2670   -2.0420 H       1     ****    0.1550 
     14 O3          1.9640   -8.1130   -0.1100 O.co2   1     ****   -0.8130 
@<TRIPOS>BOND
     1  2 1 ar
     2  3 2 ar
     3  4 3 ar
     4  5 4 ar
     5  6 1 ar
     6  6 5 ar
     7  7 5 1
     8  8 3 1
     9  9 8 1
    10 10 1 1
    11 11 2 1
    12 12 4 1
    13 13 6 1
    14 14 8 2
@<TRIPOS>SUBSTRUCTURE
1     ****    1
@<TRIPOS>MOLECULE
ZINC00001885
13 13 1 0 0 
SMALL
USER_CHARGES


@<TRIPOS>ATOM
      1 C1          4.8060   -8.3750   -1.0560 C.ar    1     ****   -0.2070 
      2 C2          3.5570   -8.8470   -0.6500 C.ar    1     ****   -0.0850 
      3 C3          3.1710   -8.7260    0.6860 C.ar    1     ****   -0.0200 
      4 C4          4.0230   -8.1370    1.6200 C.ar    1     ****   -0.0900 
      5 C5          5.2710   -7.6640    1.2150 C.ar    1     ****   -0.1490 
      6 C6          5.6540   -7.7860   -0.1190 C.ar    1     ****    0.1260 
      7 O1          6.8830   -7.3130   -0.4830 O.3     1     ****   -0.4940 
      8 CL1         1.6290   -9.3100    1.1850 Cl      1     ****   -0.0950 
      9 H1          7.0070   -7.4680   -1.4350 H       1     ****    0.4210 
     10 H2          5.1020   -8.4710   -2.0960 H       1     ****    0.1390 
     11 H3          2.8960   -9.3060   -1.3820 H       1     ****    0.1490 
     12 H4          3.7280   -8.0400    2.6620 H       1     ****    0.1500 
     13 H5          5.9380   -7.2040    1.9390 H       1     ****    0.1560 
@<TRIPOS>BOND
     1  2 1 ar
     2  3 2 ar
     3  4 3 ar
     4  5 4 ar
     5  6 1 ar
     6  6 5 ar
     7  7 6 1
     8  8 3 1
     9  9 7 1
    10 10 1 1
    11 11 2 1
    12 12 4 1
    13 13 5 1
@<TRIPOS>SUBSTRUCTURE
1     ****    1
@<TRIPOS>MOLECULE
ZINC00001895
26 28 1 0 0 
SMALL
USER_CHARGES


@<TRIPOS>ATOM
      1 C1          6.2490   -1.8760    2.2640 C.ar    1     ****   -0.1370 
      2 C2          6.2950   -1.8270    0.8730 C.ar    1     ****   -0.1230 
      3 C3          5.5530   -2.7350    0.1160 C.ar    1     ****   -0.1060 
      4 C4          4.7580   -3.7020    0.7400 C.ar    1     ****    0.1520 
      5 C5          4.7150   -3.7510    2.1530 C.ar    1     ****   -0.1330 
      6 C6          5.4620   -2.8330    2.9040 C.ar    1     ****   -0.1130 
      7 C7          3.8580   -4.7740    2.8680 C.3     1     ****    0.2570 
      8 N1          3.2590   -5.6780    1.9180 N.pl3   1     ****   -0.7490 
      9 C8          2.3370   -6.7270    2.2950 C.3     1     ****    0.1990 
     10 C9          2.2230   -7.5370    0.9960 C.3     1     ****   -0.0950 
     11 C10         2.4970   -6.5260   -0.1310 C.3     1     ****    0.1160 
     12 C11         3.3540   -5.5010    0.5610 C.2     1     ****    0.5740 
     13 N2          4.0250   -4.5960   -0.0750 N.2     1     ****   -0.6240 
     14 O1          3.2340   -7.1480   -1.1630 O.3     1     ****   -0.5870 
     15 H1          3.4620   -6.4570   -1.8080 H       1     ****    0.4260 
     16 H2          6.8260   -1.1680    2.8510 H       1     ****    0.1330 
     17 H3          6.9080   -1.0810    0.3760 H       1     ****    0.1330 
     18 H4          5.5970   -2.6850   -0.9700 H       1     ****    0.1470 
     19 H5          5.4330   -2.8590    3.9900 H       1     ****    0.1310 
     20 H6          4.4780   -5.3400    3.5710 H       1     ****    0.0330 
     21 H7          3.0730   -4.2530    3.4280 H       1     ****    0.0570 
     22 H8          2.7150   -7.3390    3.1190 H       1     ****    0.0400 
     23 H9          1.3690   -6.2980    2.5740 H       1     ****    0.0570 
     24 H10         2.9720   -8.3390    0.9840 H       1     ****    0.0800 
     25 H11         1.2420   -8.0120    0.8950 H       1     ****    0.0630 
     26 H12         1.5580   -6.1270   -0.5350 H       1     ****    0.0670 
@<TRIPOS>BOND
     1  2 1 ar
     2  3 2 ar
     3  4 3 ar
     4  5 4 ar
     5  6 1 ar
     6  6 5 ar
     7  7 5 1
     8  8 7 1
     9  9 8 1
    10 10 9 1
    11 11 10 1
    12 12 8 1
    13 12 11 1
    14 13 4 1
    15 13 12 2
    16 14 11 1
    17 15 14 1
    18 16 1 1
    19 17 2 1
    20 18 3 1
    21 19 6 1
    22 20 7 1
    23 21 7 1
    24 22 9 1
    25 23 9 1
    26 24 10 1
    27 25 10 1
    28 26 11 1
@<TRIPOS>SUBSTRUCTURE
1     ****    1
@<TRIPOS>MOLECULE
ZINC00001932
25 27 1 0 0 
SMALL
USER_CHARGES


@<TRIPOS>ATOM
      1 C1          4.5480   -8.9590   -0.3070 C.ar    1     ****   -0.1150 
      2 C2          4.2460   -8.2340   -1.4570 C.ar    1     ****   -0.1340 
      3 C3          3.5260   -7.0380   -1.3670 C.ar    1     ****   -0.1190 
      4 C4          3.0970   -6.5510   -0.1230 C.ar    1     ****   -0.1100 
      5 C5          3.4110   -7.2960    1.0260 C.ar    1     ****   -0.0840 
      6 C6          4.1300   -8.4900    0.9350 C.ar    1     ****   -0.1350 
      7 C7          2.3400   -5.3010    0.0120 C.2     1     ****    0.4700 
      8 N1          1.9770   -4.4900   -1.0440 N.pl3   1     ****   -0.2790 
      9 C8          1.2830   -3.4130   -0.5570 C.ar    1     ****   -0.0710 
     10 C9          0.7000   -2.3110   -1.1840 C.ar    1     ****   -0.1360 
     11 C10         0.0570   -1.3850   -0.3550 C.ar    1     ****   -0.1120 
     12 C11         0.0080   -1.5640    1.0300 C.ar    1     ****   -0.1540 
     13 C12         0.6020   -2.6790    1.6340 C.ar    1     ****   -0.0690 
     14 C13         1.2510   -3.6170    0.8150 C.ar    1     ****    0.0690 
     15 N2          1.9030   -4.7790    1.1470 N.2     1     ****   -0.5650 
     16 H1          2.1840   -4.6540   -2.0190 H       1     ****    0.3050 
     17 H2          5.1070   -9.8880   -0.3790 H       1     ****    0.1350 
     18 H3          4.5710   -8.5980   -2.4270 H       1     ****    0.1350 
     19 H4          3.3130   -6.5050   -2.2890 H       1     ****    0.1230 
     20 H5          3.0970   -6.9540    2.0110 H       1     ****    0.1620 
     21 H6          4.3630   -9.0530    1.8350 H       1     ****    0.1380 
     22 H7          0.7390   -2.1750   -2.2580 H       1     ****    0.1340 
     23 H8         -0.4130   -0.5100   -0.7980 H       1     ****    0.1320 
     24 H9         -0.4990   -0.8270    1.6490 H       1     ****    0.1330 
     25 H10         0.5600   -2.8130    2.7100 H       1     ****    0.1480 
@<TRIPOS>BOND
     1  2 1 ar
     2  3 2 ar
     3  4 3 ar
     4  5 4 ar
     5  6 1 ar
     6  6 5 ar
     7  7 4 1
     8  8 7 1
     9  9 8 1
    10 10 9 ar
    11 11 10 ar
    12 12 11 ar
    13 13 12 ar
    14 14 9 ar
    15 14 13 ar
    16 15 7 2
    17 15 14 1
    18 16 8 1
    19 17 1 1
    20 18 2 1
    21 19 3 1
    22 20 5 1
    23 21 6 1
    24 22 10 1
    25 23 11 1
    26 24 12 1
    27 25 13 1
@<TRIPOS>SUBSTRUCTURE
1     ****    1
@<TRIPOS>MOLECULE
ZINC00001953
17 18 1 0 0 
SMALL
USER_CHARGES


@<TRIPOS>ATOM
      1 C1          5.4230   -6.9560   -1.9780 C.ar    1     ****   -0.0830 
      2 C2          4.6160   -6.3080   -2.9170 C.ar    1     ****   -0.1320 
      3 C3          3.2570   -6.2670   -2.6780 C.ar    1     ****    0.0880 
      4 C4          2.6990   -6.8390   -1.5570 C.ar    1     ****    0.0380 
      5 C5          3.4670   -7.4860   -0.6100 C.ar    1     ****   -0.0550 
      6 C6          4.8470   -7.5390   -0.8330 C.ar    1     ****   -0.2010 
      7 C7          5.7310   -8.2140    0.1350 C.2     1     ****    0.5780 
      8 O1          5.3040   -8.7440    1.1520 O.2     1     ****   -0.5240 
      9 O2          1.3480   -6.6840   -1.5160 O.3     1     ****   -0.3290 
     10 C8          1.1180   -5.9510   -2.7360 C.3     1     ****    0.3200 
     11 O3          2.3250   -5.6820   -3.4780 O.3     1     ****   -0.3310 
     12 H1          6.4960   -7.0010   -2.1450 H       1     ****    0.1410 
     13 H2          5.0460   -5.8550   -3.8030 H       1     ****    0.1600 
     14 H3          3.0080   -7.9300    0.2660 H       1     ****    0.1770 
     15 H4          6.8090   -8.2190   -0.1030 H       1     ****    0.0000 
     16 H5          0.4370   -6.5300   -3.3710 H       1     ****    0.0760 
     17 H6          0.6400   -4.9960   -2.4870 H       1     ****    0.0770 
@<TRIPOS>BOND
     1  2 1 ar
     2  3 2 ar
     3  4 3 ar
     4  5 4 ar
     5  6 1 ar
     6  6 5 ar
     7  7 6 1
     8  8 7 2
     9  9 4 1
    10 10 9 1
    11 11 3 1
    12 11 10 1
    13 12 1 1
    14 13 2 1
    15 14 5 1
    16 15 7 1
    17 16 10 1
    18 17 10 1
@<TRIPOS>SUBSTRUCTURE
1     ****    1
@<TRIPOS>MOLECULE
ZINC00002007
24 26 1 0 0 
SMALL
USER_CHARGES


@<TRIPOS>ATOM
      1 C1          4.6890   -8.5150   -0.8330 C.ar    1     ****   -0.1500 
      2 C2          3.4860   -9.0790   -0.4030 C.ar    1     ****   -0.1070 
      3 C3          2.4050   -8.2770   -0.0240 C.ar    1     ****   -0.1240 
      4 C4          2.5990   -6.8990   -0.1020 C.ar    1     ****    0.0690 
      5 C5          3.7790   -6.3010   -0.5240 C.ar    1     ****   -0.1110 
      6 C6          4.8540   -7.1250   -0.9000 C.ar    1     ****   -0.0790 
      7 C7          3.5480   -4.9010   -0.4510 C.2     1     ****   -0.1430 
      8 C8          2.2540   -4.7270    0.0070 C.2     1     ****    0.0770 
      9 O1          1.6780   -5.9500    0.2190 O.2     1     ****   -0.1990 
     10 C9          1.4230   -3.5610    0.2940 C.ar    1     ****    0.0020 
     11 C10         0.1100   -3.6950    0.7610 C.ar    1     ****   -0.2190 
     12 C11        -0.6290   -2.5490    1.0160 C.ar    1     ****    0.3920 
     13 N1         -0.1650   -1.2940    0.8430 N.ar    1     ****   -0.6580 
     14 C12         1.1030   -1.1860    0.3930 C.ar    1     ****    0.3930 
     15 C13         1.9240   -2.2680    0.1090 C.ar    1     ****   -0.2310 
     16 H1          5.5130   -9.1650   -1.1210 H       1     ****    0.1350 
     17 H2          3.3870  -10.1610   -0.3610 H       1     ****    0.1370 
     18 H3          1.4670   -8.7040    0.3110 H       1     ****    0.1520 
     19 H4          5.7950   -6.7000   -1.2370 H       1     ****    0.1400 
     20 H5          4.2480   -4.1180   -0.7040 H       1     ****    0.1660 
     21 H6         -0.3430   -4.6670    0.9280 H       1     ****    0.1600 
     22 H7         -1.6500   -2.6180    1.3790 H       1     ****    0.0260 
     23 H8          1.4590   -0.1690    0.2600 H       1     ****    0.0250 
     24 H9          2.9320   -2.0880   -0.2500 H       1     ****    0.1460 
@<TRIPOS>BOND
     1  2 1 ar
     2  3 2 ar
     3  4 3 ar
     4  5 4 ar
     5  6 1 ar
     6  6 5 ar
     7  7 5 1
     8  8 7 2
     9  9 4 1
    10  9 8 1
    11 10 8 1
    12 11 10 ar
    13 12 11 ar
    14 13 12 ar
    15 14 13 ar
    16 15 10 ar
    17 15 14 ar
    18 16 1 1
    19 17 2 1
    20 18 3 1
    21 19 6 1
    22 20 7 1
    23 21 11 1
    24 22 12 1
    25 23 14 1
    26 24 15 1
@<TRIPOS>SUBSTRUCTURE
1     ****    1
@<TRIPOS>MOLECULE
ZINC00002203
26 29 1 0 0 
SMALL
USER_CHARGES


@<TRIPOS>ATOM
      1 C1          1.4270   -7.5710   -4.5960 C.ar    1     ****   -0.3070 
      2 C2          1.9330   -6.2860   -4.7470 C.ar    1     ****   -0.0120 
      3 C3          2.1270   -5.4960   -3.6140 C.ar    1     ****   -0.3310 
      4 C4          2.6570   -4.1330   -3.7130 C.2     1     ****    0.6080 
      5 O1          2.9490   -3.6390   -4.7910 O.2     1     ****   -0.5480 
      6 C5          2.8180   -3.3960   -2.4500 C.ar    1     ****   -0.2030 
      7 C6          3.3180   -2.0890   -2.4540 C.ar    1     ****   -0.0620 
      8 C7          3.4660   -1.4000   -1.2440 C.ar    1     ****   -0.0210 
      9 C8          3.1120   -2.0240   -0.0410 C.ar    1     ****   -0.0920 
     10 C9          2.6130   -3.3310   -0.0520 C.ar    1     ****   -0.0020 
     11 C10         2.4630   -4.0260   -1.2570 C.ar    1     ****    0.0910 
     12 O2          1.9680   -5.3070   -1.2000 O.3     1     ****   -0.3120 
     13 C11         1.8090   -6.0140   -2.3680 C.ar    1     ****    0.6600 
     14 N1          1.3160   -7.2630   -2.2000 N.ar    1     ****   -0.6850 
     15 C12         1.1370   -8.0090   -3.3140 C.ar    1     ****    0.4400 
     16 CL1         2.1900   -4.0600    1.4580 Cl      1     ****   -0.0960 
     17 C13         4.0000    0.0000   -1.2350 C.2     1     ****    0.3440 
     18 N2          4.6700    1.9240   -0.5510 N.2     1     ****   -0.1620 
     19 N3          4.7850    1.8890   -1.8940 N.2     1     ****   -0.1620 
     20 N4          4.3680    0.6840   -2.3480 N.2     1     ****   -0.4090 
     21 H1          1.2650   -8.2120   -5.4550 H       1     ****    0.1410 
     22 H2          2.1700   -5.9150   -5.7400 H       1     ****    0.1600 
     23 H3          3.5880   -1.6190   -3.3970 H       1     ****    0.1810 
     24 H4          3.2200   -1.5030    0.9080 H       1     ****    0.1740 
     25 H5          0.7400   -9.0040   -3.1430 H       1     ****    0.0180 
     26 N5          4.1770    0.7430   -0.1130 N.pl3   1     ****   -0.4150 
@<TRIPOS>BOND
     1  2 1 ar
     2  3 2 ar
     3  4 3 1
     4  5 4 2
     5  6 4 1
     6  7 6 ar
     7  8 7 ar
     8  9 8 ar
     9 10 9 ar
    10 11 6 ar
    11 11 10 ar
    12 12 11 1
    13 13 3 ar
    14 13 12 1
    15 14 13 ar
    16 15 1 ar
    17 15 14 ar
    18 16 10 1
    19 17 8 1
    20 19 18 2
    21 20 17 2
    22 20 19 1
    23 21 1 1
    24 22 2 1
    25 23 7 1
    26 24 9 1
    27 25 15 1
    28 26 17 1
    29 26 18 1
@<TRIPOS>SUBSTRUCTURE
1     ****    1
@<TRIPOS>MOLECULE
ZINC00002215
13 13 1 0 0 
SMALL
USER_CHARGES


@<TRIPOS>ATOM
      1 C1          1.7880   -1.0330   -0.1980 C.ar    1     ****   -0.1450 
      2 C2          2.3270    0.0720   -0.8550 C.ar    1     ****    0.1480 
      3 C3          1.8050    0.4910   -2.0790 C.ar    1     ****   -0.0670 
      4 C4          0.7350   -0.1980   -2.6520 C.ar    1     ****   -0.0730 
      5 C5          0.1900   -1.3080   -1.9980 C.ar    1     ****   -0.0150 
      6 C6          0.7170   -1.7260   -0.7690 C.ar    1     ****    0.0530 
      7 CL1         0.0870   -3.0880    0.0880 Cl      1     ****   -0.0550 
      8 CL2        -1.1330   -2.1220   -2.7560 Cl      1     ****   -0.0600 
      9 CL3         2.4640    1.8560   -2.9000 Cl      1     ****   -0.0790 
     10 O1          3.3740    0.7150   -0.2550 O.3     1     ****   -0.4830 
     11 H1          3.6370    1.4570   -0.8280 H       1     ****    0.4350 
     12 H2          2.2060   -1.3470    0.7550 H       1     ****    0.1750 
     13 H3          0.3270    0.1280   -3.6070 H       1     ****    0.1670 
@<TRIPOS>BOND
     1  2 1 ar
     2  3 2 ar
     3  4 3 ar
     4  5 4 ar
     5  6 1 ar
     6  6 5 ar
     7  7 6 1
     8  8 5 1
     9  9 3 1
    10 10 2 1
    11 11 10 1
    12 12 1 1
    13 13 4 1
@<TRIPOS>SUBSTRUCTURE
1     ****    1
@<TRIPOS>MOLECULE
ZINC00002265
16 17 1 0 0 
SMALL
USER_CHARGES


@<TRIPOS>ATOM
      1 C1         -0.9080    4.9190    9.5570 C.ar    1     ****   -0.1290 
      2 C2         -1.1070    6.0200    8.7170 C.ar    1     ****   -0.0950 
      3 C3          0.0470    6.6420    8.2560 C.ar    1     ****    0.0130 
      4 C4          1.3370    6.2470    8.5690 C.ar    1     ****    0.1080 
      5 C5          1.5260    5.1430    9.4120 C.ar    1     ****   -0.0890 
      6 C6          0.3820    4.4910    9.8970 C.ar    1     ****    0.0150 
      7 CL1         0.5720    3.1280   10.9370 Cl      1     ****   -0.0950 
      8 N1          2.2360    7.0780    7.9470 N.2     1     ****   -0.6320 
      9 C7          1.4790    7.9330    7.2870 C.2     1     ****    0.7730 
     10 O1          0.1320    7.7250    7.4320 O.2     1     ****   -0.3360 
     11 N2          1.8380    8.9620    6.5080 N.pl3   1     ****   -0.9290 
     12 H1          2.8110    9.1920    6.3430 H       1     ****    0.4650 
     13 H2          1.1510    9.5520    6.0510 H       1     ****    0.4570 
     14 H3         -1.7790    4.3950    9.9470 H       1     ****    0.1510 
     15 H4         -2.0970    6.3640    8.4440 H       1     ****    0.1550 
     16 H5          2.5250    4.8120    9.6750 H       1     ****    0.1660 
@<TRIPOS>BOND
     1  2 1 ar
     2  3 2 ar
     3  4 3 ar
     4  5 4 ar
     5  6 1 ar
     6  6 5 ar
     7  7 6 1
     8  8 4 1
     9  9 8 2
    10 10 3 1
    11 10 9 1
    12 11 9 1
    13 12 11 1
    14 13 11 1
    15 14 1 1
    16 15 2 1
    17 16 5 1
@<TRIPOS>SUBSTRUCTURE
1     ****    1
@<TRIPOS>MOLECULE
ZINC00002744
15 15 1 0 0 
SMALL
USER_CHARGES


@<TRIPOS>ATOM
      1 C1         -1.2900   -7.1570   -0.1440 C.2     1     ****   -0.0650 
      2 C2         -1.8680   -8.0570   -0.9450 C.2     1     ****   -0.1690 
      3 C3         -1.5870   -8.2730   -2.3410 C.2     1     ****   -0.0390 
      4 C4         -1.1750   -7.3700   -3.2420 C.2     1     ****   -0.1550 
      5 C5         -0.8500   -5.9460   -2.9300 C.2     1     ****    0.5960 
      6 O1         -1.1230   -5.0480   -3.7250 O.2     1     ****   -0.4670 
      7 C6         -0.0660   -5.6340   -1.6990 C.2     1     ****    0.0600 
      8 C7         -0.2670   -6.2100   -0.5050 C.2     1     ****   -0.2320 
      9 O2          0.8920   -4.6450   -1.8590 O.3     1     ****   -0.4710 
     10 BR1        -1.0030   -7.8560   -5.0510 Br      1     ****   -0.0430 
     11 H1          1.3330   -4.4980   -1.0050 H       1     ****    0.4240 
     12 H2         -1.5870   -7.1370    0.9030 H       1     ****    0.1340 
     13 H3         -2.6080   -8.7300   -0.5150 H       1     ****    0.1390 
     14 H4         -1.8140   -9.2850   -2.6750 H       1     ****    0.1480 
     15 H5          0.3470   -5.8950    0.3370 H       1     ****    0.1390 
@<TRIPOS>BOND
     1  2 1 2
     2  3 2 1
     3  4 3 2
     4  5 4 1
     5  6 5 2
     6  7 5 1
     7  8 1 1
     8  8 7 2
     9  9 7 1
    10 10 4 1
    11 11 9 1
    12 12 1 1
    13 13 2 1
    14 14 3 1
    15 15 8 1
@<TRIPOS>SUBSTRUCTURE
1     ****    1
@<TRIPOS>MOLECULE
ZINC00003275
33 36 1 0 0 
SMALL
USER_CHARGES


@<TRIPOS>ATOM
      1 C1          5.1690   -9.2910   -0.4030 C.ar    1     ****   -0.1140 
      2 C2          4.4060   -8.2690   -0.9520 C.ar    1     ****   -0.1470 
      3 C3          4.2950   -7.0430   -0.2870 C.ar    1     ****   -0.0820 
      4 C4          4.9530   -6.7940    0.9370 C.ar    1     ****   -0.1490 
      5 C5          5.7130   -7.8560    1.4760 C.ar    1     ****   -0.0550 
      6 C6          5.8140   -9.0900    0.8130 C.ar    1     ****   -0.1410 
      7 C7          6.3200   -7.7050    2.8450 C.3     1     ****   -0.0350 
      8 C8          6.7160   -6.2610    3.1330 C.3     1     ****   -0.0170 
      9 C9          5.6630   -5.2570    2.7060 C.ar    1     ****   -0.2710 
     10 C10         4.8460   -5.5530    1.5970 C.ar    1     ****    0.5290 
     11 N1          3.9660   -4.6400    1.1500 N.ar    1     ****   -0.6990 
     12 C11         3.8190   -3.4520    1.7540 C.ar    1     ****    0.4300 
     13 C12         2.8570   -2.5780    1.2550 C.ar    1     ****   -0.1730 
     14 C13         2.6340   -1.3250    1.8230 C.ar    1     ****   -0.1190 
     15 C14         3.3850   -0.9280    2.9150 C.ar    1     ****   -0.1390 
     16 C15         4.3560   -1.7870    3.4290 C.ar    1     ****   -0.1070 
     17 C16         4.5940   -3.0650    2.8600 C.ar    1     ****   -0.1810 
     18 C17         5.5740   -3.9840    3.3180 C.ar    1     ****    0.1960 
     19 N2          6.3980   -3.6620    4.3990 N.pl3   1     ****   -0.8290 
     20 H1          6.3930   -2.7330    4.7950 H       1     ****    0.4030 
     21 H2          7.1850   -4.2480    4.6390 H       1     ****    0.4030 
     22 H3          5.2510  -10.2460   -0.9130 H       1     ****    0.1310 
     23 H4          3.8920   -8.4200   -1.8970 H       1     ****    0.1330 
     24 H5          3.6870   -6.2700   -0.7560 H       1     ****    0.1550 
     25 H6          6.3850   -9.9040    1.2520 H       1     ****    0.1310 
     26 H7          5.5760   -8.0400    3.5800 H       1     ****    0.0610 
     27 H8          7.2020   -8.3460    2.9540 H       1     ****    0.0500 
     28 H9          6.9200   -6.1980    4.2070 H       1     ****    0.0460 
     29 H10         7.6440   -6.0170    2.6010 H       1     ****    0.0460 
     30 H11         2.2560   -2.8750    0.3970 H       1     ****    0.1500 
     31 H12         1.8750   -0.6680    1.4100 H       1     ****    0.1350 
     32 H13         3.2210    0.0450    3.3690 H       1     ****    0.1330 
     33 H14         4.9230   -1.4380    4.2870 H       1     ****    0.1250 
@<TRIPOS>BOND
     1  2 1 ar
     2  3 2 ar
     3  4 3 ar
     4  5 4 ar
     5  6 1 ar
     6  6 5 ar
     7  7 5 1
     8  8 7 1
     9  9 8 1
    10 10 4 1
    11 10 9 ar
    12 11 10 ar
    13 12 11 ar
    14 13 12 ar
    15 14 13 ar
    16 15 14 ar
    17 16 15 ar
    18 17 12 ar
    19 17 16 ar
    20 18 9 ar
    21 18 17 ar
    22 19 18 1
    23 20 19 1
    24 21 19 1
    25 22 1 1
    26 23 2 1
    27 24 3 1
    28 25 6 1
    29 26 7 1
    30 27 7 1
    31 28 8 1
    32 29 8 1
    33 30 13 1
    34 31 14 1
    35 32 15 1
    36 33 16 1
@<TRIPOS>SUBSTRUCTURE
1     ****    1
@<TRIPOS>MOLECULE
ZINC00003709
25 26 1 0 0 
SMALL
USER_CHARGES


@<TRIPOS>ATOM
      1 C1          3.6690   -8.9590    0.1800 C.ar    1     ****   -0.1360 
      2 C2          3.8950   -8.1950   -0.9590 C.ar    1     ****   -0.1160 
      3 C3          3.0770   -7.0950   -1.2420 C.ar    1     ****   -0.1510 
      4 C4          2.0170   -6.7240   -0.3940 C.ar    1     ****    0.0880 
      5 C5          1.8100   -7.5240    0.7480 C.ar    1     ****   -0.1290 
      6 C6          2.6240   -8.6250    1.0330 C.ar    1     ****   -0.1170 
      7 N1          1.1900   -5.6230   -0.6770 N.pl3   1     ****   -0.3870 
      8 C7          1.1360   -5.0320   -2.0070 C.3     1     ****    0.1520 
      9 C8         -0.1760   -4.2810   -2.1610 C.3     1     ****   -0.0830 
     10 C9         -0.2610   -3.2000   -1.1050 C.3     1     ****   -0.1490 
     11 C10         0.0040   -3.7250    0.2870 C.2     1     ****    0.6760 
     12 O1         -0.3990   -3.1060    1.2740 O.2     1     ****   -0.6200 
     13 N2          0.7660   -4.8620    0.4110 N.am    1     ****   -0.3990 
     14 H1          1.0210   -5.1960    1.3330 H       1     ****    0.3070 
     15 H2          4.3020   -9.8130    0.4000 H       1     ****    0.1350 
     16 H3          4.7090   -8.4500   -1.6320 H       1     ****    0.1340 
     17 H4          3.3020   -6.5210   -2.1380 H       1     ****    0.1350 
     18 H5          0.9850   -7.3190    1.4280 H       1     ****    0.1380 
     19 H6          2.4350   -9.2230    1.9200 H       1     ****    0.1360 
     20 H7          1.9890   -4.3600   -2.1610 H       1     ****    0.0380 
     21 H8          1.1680   -5.8070   -2.7810 H       1     ****    0.0710 
     22 H9         -0.2450   -3.8380   -3.1600 H       1     ****    0.0570 
     23 H10        -1.0180   -4.9760   -2.0490 H       1     ****    0.0620 
     24 H11         0.4760   -2.4130   -1.3050 H       1     ****    0.0770 
     25 H12        -1.2560   -2.7440   -1.1230 H       1     ****    0.0830 
@<TRIPOS>BOND
     1  2 1 ar
     2  3 2 ar
     3  4 3 ar
     4  5 4 ar
     5  6 1 ar
     6  6 5 ar
     7  7 4 1
     8  8 7 1
     9  9 8 1
    10 10 9 1
    11 11 10 1
    12 12 11 2
    13 13 7 1
    14 13 11 1
    15 14 13 1
    16 15 1 1
    17 16 2 1
    18 17 3 1
    19 18 5 1
    20 19 6 1
    21 20 8 1
    22 21 8 1
    23 22 9 1
    24 23 9 1
    25 24 10 1
    26 25 10 1
@<TRIPOS>SUBSTRUCTURE
1     ****    1
@<TRIPOS>MOLECULE
ZINC00003710
25 26 1 0 0 
SMALL
USER_CHARGES


@<TRIPOS>ATOM
      1 C1          4.3840   -8.4610   -0.4450 C.ar    1     ****   -0.1350 
      2 C2          4.7220   -7.1130   -0.4100 C.ar    1     ****   -0.1180 
      3 C3          3.7250   -6.1370   -0.5090 C.ar    1     ****   -0.1270 
      4 C4          2.3640   -6.4780   -0.6420 C.ar    1     ****    0.0860 
      5 C5          2.0570   -7.8510   -0.6850 C.ar    1     ****   -0.1500 
      6 C6          3.0520   -8.8300   -0.5840 C.ar    1     ****   -0.1170 
      7 N1          1.3680   -5.4910   -0.7480 N.pl3   1     ****   -0.3870 
      8 C7          0.0410   -5.7990   -1.2610 C.3     1     ****    0.1520 
      9 C8         -0.6010   -4.5190   -1.7710 C.3     1     ****   -0.0830 
     10 C9         -0.6980   -3.5220   -0.6360 C.3     1     ****   -0.1490 
     11 C10         0.6190   -3.3250    0.0780 C.2     1     ****    0.6760 
     12 O1          0.8240   -2.3020    0.7360 O.2     1     ****   -0.6200 
     13 N2          1.5360   -4.3470    0.0300 N.am    1     ****   -0.3990 
     14 H1          2.3970   -4.2740    0.5600 H       1     ****    0.3070 
     15 H2          5.1570   -9.2200   -0.3690 H       1     ****    0.1350 
     16 H3          5.7620   -6.8160   -0.3130 H       1     ****    0.1360 
     17 H4          4.0390   -5.0960   -0.5090 H       1     ****    0.1390 
     18 H5          1.0280   -8.1910   -0.7780 H       1     ****    0.1350 
     19 H6          2.7800   -9.8820   -0.6130 H       1     ****    0.1340 
     20 H7          0.0990   -6.5000   -2.1030 H       1     ****    0.0710 
     21 H8         -0.5750   -6.2580   -0.4780 H       1     ****    0.0380 
     22 H9          0.0030   -4.0980   -2.5840 H       1     ****    0.0620 
     23 H10        -1.5970   -4.7290   -2.1750 H       1     ****    0.0560 
     24 H11        -1.0340   -2.5550   -1.0230 H       1     ****    0.0830 
     25 H12        -1.4290   -3.8610    0.1080 H       1     ****    0.0760 
@<TRIPOS>BOND
     1  2 1 ar
     2  3 2 ar
     3  4 3 ar
     4  5 4 ar
     5  6 1 ar
     6  6 5 ar
     7  7 4 1
     8  8 7 1
     9  9 8 1
    10 10 9 1
    11 11 10 1
    12 12 11 2
    13 13 7 1
    14 13 11 1
    15 14 13 1
    16 15 1 1
    17 16 2 1
    18 17 3 1
    19 18 5 1
    20 19 6 1
    21 20 8 1
    22 21 8 1
    23 22 9 1
    24 23 9 1
    25 24 10 1
    26 25 10 1
@<TRIPOS>SUBSTRUCTURE
1     ****    1
@<TRIPOS>MOLECULE
ZINC00003827
30 33 1 0 0 
SMALL
USER_CHARGES


@<TRIPOS>ATOM
      1 C1          2.1190   -9.4280    1.0400 C.ar    1     ****   -0.1130 
      2 C2          1.7080  -10.6440    0.4560 C.ar    1     ****   -0.1300 
      3 C3          0.9850  -10.6610   -0.7410 C.ar    1     ****   -0.0600 
      4 C4          0.6980   -9.4410   -1.3170 C.ar    1     ****   -0.1480 
      5 C5          1.1040   -8.2430   -0.7410 C.ar    1     ****   -0.1160 
      6 C6          1.8170   -8.2030    0.4390 C.ar    1     ****   -0.0800 
      7 C7          0.6370   -7.1710   -1.6020 C.2     1     ****    0.5130 
      8 N1          0.8100   -5.9060   -1.4180 N.2     1     ****   -0.5620 
      9 C8          0.2660   -5.0380   -2.3900 C.ar    1     ****    0.0830 
     10 C9          0.4350   -3.6610   -2.2270 C.ar    1     ****   -0.0530 
     11 C10        -0.0860   -2.7640   -3.1640 C.ar    1     ****   -0.1930 
     12 C11        -0.7920   -3.2230   -4.2800 C.ar    1     ****    0.1550 
     13 C12        -0.9550   -4.6030   -4.4490 C.ar    1     ****   -0.1850 
     14 C13        -0.4360   -5.5110   -3.5140 C.ar    1     ****   -0.0770 
     15 C14        -0.6270   -6.9880   -3.7160 C.3     1     ****    0.1590 
     16 N2         -0.0230   -7.7610   -2.6490 N.am    1     ****   -0.4460 
     17 C15        -0.0310   -9.1310   -2.5520 C.2     1     ****    0.7320 
     18 O1         -0.5180   -9.9650   -3.2920 O.2     1     ****   -0.5870 
     19 N3         -1.2920   -2.3320   -5.2160 N.pl3   1     ****   -0.8230 
     20 H1         -1.2020   -1.3350   -5.0730 H       1     ****    0.3960 
     21 H2         -1.8320   -2.6650   -6.0040 H       1     ****    0.3960 
     22 H3          2.6790   -9.4460    1.9720 H       1     ****    0.1400 
     23 H4          1.9570  -11.5820    0.9470 H       1     ****    0.1410 
     24 H5          0.6690  -11.5950   -1.1900 H       1     ****    0.1570 
     25 H6          2.1320   -7.2670    0.8860 H       1     ****    0.1600 
     26 H7          0.9770   -3.2760   -1.3660 H       1     ****    0.1490 
     27 H8          0.0640   -1.6970   -3.0120 H       1     ****    0.1360 
     28 H9         -1.4930   -4.9790   -5.3170 H       1     ****    0.1370 
     29 H10        -1.6940   -7.2400   -3.7460 H       1     ****    0.0600 
     30 H11        -0.1740   -7.3130   -4.6590 H       1     ****    0.0610 
@<TRIPOS>BOND
     1  2 1 ar
     2  3 2 ar
     3  4 3 ar
     4  5 4 ar
     5  6 1 ar
     6  6 5 ar
     7  7 5 1
     8  8 7 2
     9  9 8 1
    10 10 9 ar
    11 11 10 ar
    12 12 11 ar
    13 13 12 ar
    14 14 9 ar
    15 14 13 ar
    16 15 14 1
    17 16 7 1
    18 16 15 1
    19 17 4 1
    20 17 16 1
    21 18 17 2
    22 19 12 1
    23 20 19 1
    24 21 19 1
    25 22 1 1
    26 23 2 1
    27 24 3 1
    28 25 6 1
    29 26 10 1
    30 27 11 1
    31 28 13 1
    32 29 15 1
    33 30 15 1
@<TRIPOS>SUBSTRUCTURE
1     ****    1
@<TRIPOS>MOLECULE
ZINC00003982
26 28 1 0 0 
SMALL
USER_CHARGES


@<TRIPOS>ATOM
      1 C1         -7.6950    6.5650   -0.4210 C.3     1     ****   -0.1040 
      2 C2         -6.4880    6.2080    0.4580 C.3     1     ****    0.2830 
      3 C3         -5.5820    5.1930   -0.2140 C.3     1     ****   -0.0860 
      4 C4         -4.6130    6.1220   -0.9900 C.3     1     ****   -0.1710 
      5 C5         -4.5230    7.3770   -0.1230 C.2     1     ****    0.6800 
      6 O1         -3.6160    8.1920   -0.1510 O.2     1     ****   -0.5720 
      7 N1         -5.6320    7.3280    0.7020 N.am    1     ****   -0.3110 
      8 C6         -5.7890    7.7630    2.0100 C.ar    1     ****   -0.0270 
      9 C7         -5.1830    8.7990    2.6870 C.ar    1     ****   -0.0950 
     10 C8         -5.5030    8.9410    4.0380 C.ar    1     ****   -0.1370 
     11 C9         -6.3790    8.0390    4.6740 C.ar    1     ****   -0.1220 
     12 C10        -6.9520    6.9710    3.9730 C.ar    1     ****   -0.1310 
     13 C11        -6.6580    6.8480    2.6310 C.ar    1     ****    0.0510 
     14 N2         -6.9990    5.7850    1.7670 N.pl3   1     ****   -0.6770 
     15 H1         -7.8160    5.2080    1.9080 H       1     ****    0.3860 
     16 H2         -8.3330    5.6890   -0.5870 H       1     ****    0.0440 
     17 H3         -8.3140    7.3400    0.0450 H       1     ****    0.0540 
     18 H4         -7.3830    6.9480   -1.3990 H       1     ****    0.0590 
     19 H5         -5.0120    4.6170    0.5260 H       1     ****    0.0780 
     20 H6         -6.0990    4.4870   -0.8700 H       1     ****    0.0600 
     21 H7         -3.6290    5.6600   -1.1050 H       1     ****    0.0870 
     22 H8         -5.0150    6.3960   -1.9710 H       1     ****    0.0810 
     23 H9         -4.4940    9.4790    2.2010 H       1     ****    0.1600 
     24 H10        -5.0600    9.7510    4.6140 H       1     ****    0.1370 
     25 H11        -6.5980    8.1650    5.7320 H       1     ****    0.1340 
     26 H12        -7.5920    6.2580    4.4800 H       1     ****    0.1410 
@<TRIPOS>BOND
     1  2 1 1
     2  3 2 1
     3  4 3 1
     4  5 4 1
     5  6 5 2
     6  7 2 1
     7  7 5 1
     8  8 7 1
     9  9 8 ar
    10 10 9 ar
    11 11 10 ar
    12 12 11 ar
    13 13 8 ar
    14 13 12 ar
    15 14 2 1
    16 14 13 1
    17 15 14 1
    18 16 1 1
    19 17 1 1
    20 18 1 1
    21 19 3 1
    22 20 3 1
    23 21 4 1
    24 22 4 1
    25 23 9 1
    26 24 10 1
    27 25 11 1
    28 26 12 1
@<TRIPOS>SUBSTRUCTURE
1     ****    1
@<TRIPOS>MOLECULE
ZINC00004285
27 28 1 0 0 
SMALL
USER_CHARGES


@<TRIPOS>ATOM
      1 C1          2.3280   -8.5740    0.4290 C.ar    1     ****   -0.0950 
      2 C2          1.4600   -7.4780    0.4670 C.ar    1     ****   -0.1330 
      3 C3          1.6340   -6.3600   -0.3730 C.ar    1     ****    0.0980 
      4 C4          2.7370   -6.3920   -1.2470 C.ar    1     ****   -0.1640 
      5 C5          3.6040   -7.4900   -1.2860 C.ar    1     ****    0.0390 
      6 C6          3.4030   -8.5830   -0.4520 C.ar    1     ****   -0.1140 
      7 CL1         4.9340   -7.4870   -2.3820 Cl      1     ****   -0.0570 
      8 N1          0.7560   -5.2730   -0.3080 N.pl3   1     ****   -0.6420 
      9 C7         -0.6860   -5.5590   -0.3730 C.3     1     ****    0.1620 
     10 C8         -1.4900   -4.4280    0.2600 C.3     1     ****    0.0990 
     11 C9          0.3670   -2.8420   -0.1890 C.3     1     ****    0.1000 
     12 C10         1.1820   -3.9650   -0.8230 C.3     1     ****    0.1610 
     13 H1          2.1650   -9.4170    1.0950 H       1     ****    0.1570 
     14 H2          0.6510   -7.5010    1.1950 H       1     ****    0.1420 
     15 H3          2.9220   -5.5650   -1.9290 H       1     ****    0.1440 
     16 H4          4.0730   -9.4380   -0.4750 H       1     ****    0.1680 
     17 H5         -0.9760   -5.6820   -1.4240 H       1     ****    0.0510 
     18 H6         -0.9580   -6.4860    0.1420 H       1     ****    0.1150 
     19 H7         -2.5630   -4.5500    0.0860 H       1     ****    0.1090 
     20 H8         -1.3040   -4.3450    1.3360 H       1     ****    0.1200 
     21 H9          0.5650   -1.8800   -0.6700 H       1     ****    0.1090 
     22 H10         0.5550   -2.7570    0.8870 H       1     ****    0.1210 
     23 H11         2.2370   -3.7740   -0.5880 H       1     ****    0.1200 
     24 H12         1.0680   -3.9420   -1.9140 H       1     ****    0.0480 
     25 N2         -1.0900   -3.1280   -0.3580 N.4     1     ****   -0.7620 
     26 H13        -1.6380   -2.3660    0.0650 H       1     ****    0.4570 
     27 H14        -1.3320   -3.1280   -1.3590 H       1     ****    0.4490 
@<TRIPOS>BOND
     1  2 1 ar
     2  3 2 ar
     3  4 3 ar
     4  5 4 ar
     5  6 1 ar
     6  6 5 ar
     7  7 5 1
     8  8 3 1
     9  9 8 1
    10 10 9 1
    11 12 8 1
    12 12 11 1
    13 13 1 1
    14 14 2 1
    15 15 4 1
    16 16 6 1
    17 17 9 1
    18 18 9 1
    19 19 10 1
    20 20 10 1
    21 21 11 1
    22 22 11 1
    23 23 12 1
    24 24 12 1
    25 25 10 1
    26 25 11 1
    27 26 25 1
    28 27 25 1
@<TRIPOS>SUBSTRUCTURE
1     ****    1
@<TRIPOS>MOLECULE
ZINC00005155
28 30 1 0 0 
SMALL
USER_CHARGES


@<TRIPOS>ATOM
      1 C1          5.9330   -7.5660    2.2040 C.2     1     ****   -0.2080 
      2 C2          5.4470   -6.2500    2.0080 C.2     1     ****   -0.1490 
      3 C3          4.1470   -6.3300    1.5290 C.2     1     ****   -0.2030 
      4 N1          3.8700   -7.6780    1.4080 N.pl3   1     ****   -0.1410 
      5 C4          4.9330   -8.4300    1.8270 C.2     1     ****   -0.1400 
      6 C5          3.2020   -5.2870    1.1500 C.2     1     ****    0.5810 
      7 N2          2.2570   -5.6440    0.3470 N.2     1     ****   -0.6210 
      8 C6          1.3020   -4.6520   -0.1000 C.3     1     ****    0.0510 
      9 C7          1.9980   -3.7240   -1.0650 C.2     1     ****    0.6860 
     10 O1          1.7300   -3.7310   -2.2670 O.2     1     ****   -0.6090 
     11 N3          2.8800   -2.8180   -0.5190 N.am    1     ****   -0.4720 
     12 C8          3.3350   -2.7790    0.8140 C.ar    1     ****    0.0880 
     13 C9          3.3990   -3.8970    1.6630 C.ar    1     ****   -0.2020 
     14 C10         3.7500   -3.7250    3.0110 C.ar    1     ****   -0.0720 
     15 C11         4.1120   -2.4650    3.4850 C.ar    1     ****   -0.0140 
     16 C12         4.1340   -1.3690    2.6280 C.ar    1     ****   -0.0840 
     17 C13         3.7510   -1.5290    1.2960 C.ar    1     ****   -0.1710 
     18 CL1         4.5600   -2.2680    5.1360 Cl      1     ****   -0.0810 
     19 H1          2.9960   -8.0490    1.0610 H       1     ****    0.3120 
     20 H2          3.1650   -2.0560   -1.1280 H       1     ****    0.3260 
     21 H3          6.9090   -7.8510    2.5730 H       1     ****    0.1570 
     22 H4          6.0010   -5.3400    2.1940 H       1     ****    0.1580 
     23 H5          4.8870   -9.5100    1.8110 H       1     ****    0.1690 
     24 H6          0.4880   -5.1560   -0.6320 H       1     ****    0.1050 
     25 H7          0.8400   -4.0960    0.7240 H       1     ****    0.0690 
     26 H8          3.7600   -4.5740    3.6920 H       1     ****    0.1680 
     27 H9          4.4290   -0.3860    2.9840 H       1     ****    0.1540 
     28 H10         3.7430   -0.6550    0.6470 H       1     ****    0.1450 
@<TRIPOS>BOND
     1  2 1 1
     2  3 2 2
     3  4 3 1
     4  5 1 2
     5  5 4 1
     6  6 3 1
     7  7 6 2
     8  8 7 1
     9  9 8 1
    10 10 9 2
    11 11 9 1
    12 12 11 1
    13 13 6 1
    14 13 12 ar
    15 14 13 ar
    16 15 14 ar
    17 16 15 ar
    18 17 12 ar
    19 17 16 ar
    20 18 15 1
    21 19 4 1
    22 20 11 1
    23 21 1 1
    24 22 2 1
    25 23 5 1
    26 24 8 1
    27 25 8 1
    28 26 14 1
    29 27 16 1
    30 28 17 1
@<TRIPOS>SUBSTRUCTURE
1     ****    1
@<TRIPOS>MOLECULE
ZINC00005370
30 33 1 0 0 
SMALL
USER_CHARGES


@<TRIPOS>ATOM
      1 C1         -9.5440    8.4540    2.3970 C.ar    1     ****   -0.1550 
      2 C2         -9.3200    7.9680    3.6870 C.ar    1     ****   -0.1070 
      3 C3         -8.5380    6.8300    3.9090 C.ar    1     ****   -0.1350 
      4 C4         -7.9940    6.2080    2.7830 C.ar    1     ****   -0.0350 
      5 C5         -8.2060    6.6680    1.4790 C.ar    1     ****    0.0620 
      6 C6         -8.9940    7.8140    1.2790 C.ar    1     ****   -0.0650 
      7 N1         -7.5730    5.8630    0.5490 N.2     1     ****   -0.5320 
      8 C7         -6.9890    4.9300    1.2640 C.2     1     ****    0.4100 
      9 N2         -7.1980    5.1220    2.6030 N.pl3   1     ****   -0.1890 
     10 C8         -6.6370    4.1360    3.5060 C.3     1     ****    0.2290 
     11 S1         -5.8130    2.8890    2.4740 S.3     1     ****   -0.3100 
     12 C9         -6.1810    3.7490    0.8870 C.3     1     ****   -0.0080 
     13 C10        -5.6870    4.7520    4.5190 C.ar    1     ****   -0.1830 
     14 C11        -5.8140    4.4420    5.8800 C.ar    1     ****    0.1670 
     15 C12        -4.9570    4.9800    6.8400 C.ar    1     ****   -0.1840 
     16 C13        -3.9380    5.8460    6.4490 C.ar    1     ****   -0.0660 
     17 C14        -3.7800    6.1640    5.1030 C.ar    1     ****   -0.1850 
     18 C15        -4.6450    5.6180    4.1540 C.ar    1     ****    0.1920 
     19 F1         -4.4530    5.9390    2.8660 F       1     ****   -0.1190 
     20 F2         -6.7820    3.6080    6.2890 F       1     ****   -0.1320 
     21 H1        -10.1560    9.3420    2.2570 H       1     ****    0.1340 
     22 H2         -9.7610    8.4840    4.5360 H       1     ****    0.1340 
     23 H3         -8.3650    6.4560    4.9120 H       1     ****    0.1400 
     24 H4         -9.1760    8.1960    0.2800 H       1     ****    0.1490 
     25 H5         -7.4860    3.7290    4.0820 H       1     ****    0.1090 
     26 H6         -6.7360    3.0770    0.2280 H       1     ****    0.1060 
     27 H7         -5.2440    4.0440    0.4070 H       1     ****    0.1070 
     28 H8         -5.0840    4.7230    7.8870 H       1     ****    0.1580 
     29 H9         -3.2670    6.2680    7.1910 H       1     ****    0.1490 
     30 H10        -2.9840    6.8330    4.7890 H       1     ****    0.1590 
@<TRIPOS>BOND
     1  2 1 ar
     2  3 2 ar
     3  4 3 ar
     4  5 4 ar
     5  6 1 ar
     6  6 5 ar
     7  7 5 1
     8  8 7 2
     9  9 4 1
    10  9 8 1
    11 10 9 1
    12 11 10 1
    13 12 8 1
    14 12 11 1
    15 13 10 1
    16 14 13 ar
    17 15 14 ar
    18 16 15 ar
    19 17 16 ar
    20 18 13 ar
    21 18 17 ar
    22 19 18 1
    23 20 14 1
    24 21 1 1
    25 22 2 1
    26 23 3 1
    27 24 6 1
    28 25 10 1
    29 26 12 1
    30 27 12 1
    31 28 15 1
    32 29 16 1
    33 30 17 1
@<TRIPOS>SUBSTRUCTURE
1     ****    1
@<TRIPOS>MOLECULE
ZINC00005869
17 18 1 0 0 
SMALL
USER_CHARGES


@<TRIPOS>ATOM
      1 C1          4.5350   -6.4170   -1.8750 C.ar    1     ****   -0.1840 
      2 C2          4.8010   -7.7530   -1.5520 C.ar    1     ****   -0.0090 
      3 C3          3.9250   -8.4270   -0.6850 C.ar    1     ****   -0.2300 
      4 C4          3.8440   -9.7240   -0.1350 C.2     1     ****    0.3550 
      5 N1          2.7860   -9.8820    0.6630 N.2     1     ****   -0.4920 
      6 N2          2.1870   -8.6810    0.6230 N.pl3   1     ****    0.0030 
      7 C5          2.8180   -7.7560   -0.1690 C.ar    1     ****   -0.0020 
      8 C6          2.5350   -6.4160   -0.4820 C.ar    1     ****   -0.2020 
      9 C7          3.4220   -5.7570   -1.3510 C.ar    1     ****   -0.0220 
     10 N3          1.3810   -5.6900    0.0460 N.2     1     ****    0.3260 
     11 O1          0.6570   -6.2820    0.8580 O.2     1     ****   -0.2360 
     12 O2          1.1920   -4.5310   -0.3470 O.3     1     ****   -0.2000 
     13 H1          1.3400   -8.5500    1.1640 H       1     ****    0.3570 
     14 H2          5.2070   -5.8870   -2.5450 H       1     ****    0.1500 
     15 H3          5.6710   -8.2530   -1.9680 H       1     ****    0.1500 
     16 H4          4.5130  -10.5600   -0.2830 H       1     ****    0.0640 
     17 H5          3.2670   -4.7180   -1.6370 H       1     ****    0.1710 
@<TRIPOS>BOND
     1  2 1 ar
     2  3 2 ar
     3  4 3 1
     4  5 4 2
     5  6 5 1
     6  7 3 ar
     7  7 6 1
     8  8 7 ar
     9  9 1 ar
    10  9 8 ar
    11 10 8 1
    12 11 10 2
    13 12 10 1
    14 13 6 1
    15 14 1 1
    16 15 2 1
    17 16 4 1
    18 17 9 1
@<TRIPOS>SUBSTRUCTURE
1     ****    1
@<TRIPOS>MOLECULE
ZINC00005988
38 43 1 0 0 
SMALL
USER_CHARGES


@<TRIPOS>ATOM
      1 C1         -1.9640   -0.4880   -2.2230 C.ar    1     ****   -0.1140 
      2 C2         -2.8670   -0.6610   -1.1700 C.ar    1     ****   -0.1150 
      3 C3         -3.0810    0.4090   -0.3270 C.ar    1     ****    0.0640 
      4 C4         -2.4350    1.6090   -0.5040 C.ar    1     ****    0.0530 
      5 C5         -1.5390    1.8090   -1.5350 C.ar    1     ****   -0.0990 
      6 C6         -1.2930    0.7430   -2.4190 C.ar    1     ****   -0.0590 
      7 C7         -0.3430    0.9020   -3.5310 C.ar    1     ****   -0.0060 
      8 C8         -0.7430    1.3590   -4.8240 C.ar    1     ****    0.0030 
      9 C9         -2.0820    1.6940   -5.1360 C.ar    1     ****   -0.1210 
     10 C10        -2.3940    2.1290   -6.4090 C.ar    1     ****    0.0820 
     11 C11        -1.4400    2.2460   -7.3860 C.ar    1     ****    0.0680 
     12 C12        -0.1200    1.9360   -7.1470 C.ar    1     ****   -0.1090 
     13 C13         0.2460    1.4890   -5.8660 C.ar    1     ****   -0.0530 
     14 C14         1.5850    1.1710   -5.6110 C.ar    1     ****   -0.0210 
     15 C15         1.9240    0.7350   -4.3470 C.ar    1     ****   -0.1770 
     16 C16         1.0050    0.5990   -3.3300 C.ar    1     ****   -0.0910 
     17 C17         1.6970    0.1130   -2.1160 C.3     1     ****    0.1690 
     18 O1          3.0730   -0.0080   -2.5490 O.3     1     ****   -0.4140 
     19 C18         3.2400    0.3510   -3.8590 C.2     1     ****    0.7340 
     20 O2          4.2780    0.3510   -4.4900 O.2     1     ****   -0.5550 
     21 O3         -1.9560    2.6900   -8.5640 O.3     1     ****   -0.3290 
     22 C19        -3.3470    2.8390   -8.2160 C.3     1     ****    0.3210 
     23 O4         -3.6320    2.4840   -6.8470 O.3     1     ****   -0.3290 
     24 O5         -2.7860    2.5290    0.4350 O.3     1     ****   -0.3310 
     25 C20        -3.7280    1.7720    1.2230 C.3     1     ****    0.3210 
     26 O6         -3.9190    0.4250    0.7450 O.3     1     ****   -0.3310 
     27 H1         -1.7820   -1.3210   -2.9000 H       1     ****    0.1470 
     28 H2         -3.3790   -1.6050   -1.0250 H       1     ****    0.1600 
     29 H3         -1.0410    2.7660   -1.6540 H       1     ****    0.1640 
     30 H4         -2.8770    1.6200   -4.4000 H       1     ****    0.1700 
     31 H5          0.6130    2.0400   -7.9420 H       1     ****    0.1630 
     32 H6          2.3460    1.2620   -6.3810 H       1     ****    0.1590 
     33 H7          1.6540    0.8310   -1.2930 H       1     ****    0.0830 
     34 H8          1.3460   -0.8730   -1.7990 H       1     ****    0.0820 
     35 H9         -3.6400    3.8830   -8.3760 H       1     ****    0.0790 
     36 H10        -3.9450    2.2000   -8.8760 H       1     ****    0.0790 
     37 H11        -3.3660    1.7300    2.2570 H       1     ****    0.0750 
     38 H12        -4.6940    2.2900    1.2090 H       1     ****    0.0770 
@<TRIPOS>BOND
     1  2 1 ar
     2  3 2 ar
     3  4 3 ar
     4  5 4 ar
     5  6 1 ar
     6  6 5 ar
     7  7 6 1
     8  8 7 ar
     9  9 8 ar
    10 10 9 ar
    11 11 10 ar
    12 12 11 ar
    13 13 8 ar
    14 13 12 ar
    15 14 13 ar
    16 15 14 ar
    17 16 7 ar
    18 16 15 ar
    19 17 16 1
    20 18 17 1
    21 19 15 1
    22 19 18 1
    23 20 19 2
    24 21 11 1
    25 22 21 1
    26 23 10 1
    27 23 22 1
    28 24 4 1
    29 25 24 1
    30 26 3 1
    31 26 25 1
    32 27 1 1
    33 28 2 1
    34 29 5 1
    35 30 9 1
    36 31 12 1
    37 32 14 1
    38 33 17 1
    39 34 17 1
    40 35 22 1
    41 36 22 1
    42 37 25 1
    43 38 25 1
@<TRIPOS>SUBSTRUCTURE
1     ****    1
@<TRIPOS>MOLECULE
ZINC00006099
18 19 1 0 0 
SMALL
USER_CHARGES


@<TRIPOS>ATOM
      1 C1          0.8350    2.6480    1.5210 C.ar    1     ****   -0.0740 
      2 C2         -0.5530    2.7370    1.5260 C.ar    1     ****   -0.1670 
      3 C3         -1.2120    3.2130    0.3970 C.ar    1     ****   -0.0440 
      4 C4         -0.4740    3.6030   -0.7410 C.ar    1     ****   -0.3170 
      5 C5          0.9220    3.5160   -0.7520 C.ar    1     ****    0.4960 
      6 C6          1.5580    3.0360    0.3900 C.ar    1     ****   -0.2080 
      7 N1          1.6330    3.8820   -1.8240 N.ar    1     ****   -0.7900 
      8 C7          0.9730    4.3400   -2.9030 C.ar    1     ****    0.9080 
      9 N2         -0.3600    4.4530   -2.9730 N.ar    1     ****   -0.6910 
     10 N3         -1.0750    4.0870   -1.9000 N.ar    1     ****    0.7710 
     11 O1         -2.3300    4.2120   -2.0110 O.3     1     ****   -0.4570 
     12 N4          1.7150    4.7150   -4.0050 N.pl3   1     ****   -0.9500 
     13 H1          2.7210    4.6390   -3.9780 H       1     ****    0.4560 
     14 H2          1.2440    5.0620   -4.8290 H       1     ****    0.4550 
     15 H3          1.3590    2.2770    2.3980 H       1     ****    0.1410 
     16 H4         -1.1170    2.4360    2.4030 H       1     ****    0.1450 
     17 H5         -2.2970    3.2810    0.4050 H       1     ****    0.1650 
     18 H6          2.6430    2.9580    0.4090 H       1     ****    0.1590 
@<TRIPOS>BOND
     1  2 1 ar
     2  3 2 ar
     3  4 3 ar
     4  5 4 ar
     5  6 1 ar
     6  6 5 ar
     7  7 5 ar
     8  8 7 ar
     9  9 8 ar
    10 10 4 ar
    11 10 9 ar
    12 11 10 1
    13 12 8 1
    14 13 12 1
    15 14 12 1
    16 15 1 1
    17 16 2 1
    18 17 3 1
    19 18 6 1
@<TRIPOS>SUBSTRUCTURE
1     ****    1
@<TRIPOS>MOLECULE
ZINC00006297
28 31 1 0 0 
SMALL
USER_CHARGES


@<TRIPOS>ATOM
      1 C1          2.3670    4.0890   -4.1080 C.ar    1     ****   -0.1300 
      2 C2          2.1550    3.6330   -2.8210 C.ar    1     ****   -0.1210 
      3 C3          1.8230    2.3000   -2.6020 C.ar    1     ****   -0.0950 
      4 C4          1.7030    1.4260   -3.7040 C.ar    1     ****   -0.0740 
      5 C5          1.8950    1.8470   -5.0220 C.ar    1     ****   -0.0320 
      6 C6          2.2440    3.2170   -5.1960 C.ar    1     ****   -0.1010 
      7 C7          1.6990    0.7500   -5.9860 C.ar    1     ****   -0.0890 
      8 C8          1.7730    0.7150   -7.4200 C.ar    1     ****    0.2010 
      9 C9          1.5510   -0.5040   -8.0990 C.ar    1     ****   -0.2260 
     10 C10         1.2700   -1.6910   -7.4320 C.ar    1     ****    0.0410 
     11 C11         1.0590   -2.8900   -8.1240 C.ar    1     ****   -0.2430 
     12 C12         0.7780   -4.0360   -7.3970 C.ar    1     ****    0.3930 
     13 N1          0.6900   -4.0740   -6.0520 N.ar    1     ****   -0.6710 
     14 C13         0.8950   -2.9060   -5.4020 C.ar    1     ****    0.4300 
     15 C14         1.1880   -1.6840   -6.0320 C.ar    1     ****   -0.1660 
     16 C15         1.4000   -0.4550   -5.3250 C.ar    1     ****   -0.0080 
     17 S1          1.3230   -0.2330   -3.6200 S.2     1     ****    0.0450 
     18 N2          1.9900    1.8390   -8.2230 N.pl3   1     ****   -0.8170 
     19 H1          2.3810    1.7040   -9.1470 H       1     ****    0.3930 
     20 H2          2.0890    2.7550   -7.8200 H       1     ****    0.3980 
     21 H3          2.6340    5.1290   -4.2790 H       1     ****    0.1340 
     22 H4          2.2520    4.3120   -1.9780 H       1     ****    0.1360 
     23 H5          1.6640    1.9400   -1.5890 H       1     ****    0.1400 
     24 H6          2.4350    3.6330   -6.1770 H       1     ****    0.1390 
     25 H7          1.5980   -0.5070   -9.1890 H       1     ****    0.1370 
     26 H8          1.1120   -2.9370   -9.2070 H       1     ****    0.1430 
     27 H9          0.6090   -4.9840   -7.8990 H       1     ****    0.0220 
     28 H10         0.8130   -2.9920   -4.3230 H       1     ****    0.0220 
@<TRIPOS>BOND
     1  2 1 ar
     2  3 2 ar
     3  4 3 ar
     4  5 4 ar
     5  6 1 ar
     6  6 5 ar
     7  7 5 1
     8  8 7 ar
     9  9 8 ar
    10 10 9 ar
    11 11 10 ar
    12 12 11 ar
    13 13 12 ar
    14 14 13 ar
    15 15 10 ar
    16 15 14 ar
    17 16 7 ar
    18 16 15 ar
    19 17 4 1
    20 17 16 1
    21 18 8 1
    22 19 18 1
    23 20 18 1
    24 21 1 1
    25 22 2 1
    26 23 3 1
    27 24 6 1
    28 25 9 1
    29 26 11 1
    30 27 12 1
    31 28 14 1
@<TRIPOS>SUBSTRUCTURE
1     ****    1
@<TRIPOS>MOLECULE
ZINC00006940
32 34 1 0 0 
SMALL
USER_CHARGES


@<TRIPOS>ATOM
      1 C1          5.7490   -8.3370   -0.9260 C.2     1     ****   -0.0320 
      2 C2          4.6140   -8.6300   -1.7560 C.2     1     ****   -0.1920 
      3 C3          3.5510   -7.8180   -1.7420 C.2     1     ****    0.0080 
      4 N1          3.5050   -6.6840   -0.9410 N.am    1     ****   -0.2650 
      5 C4          4.5750   -6.3470   -0.1160 C.2     1     ****    0.5730 
      6 C5          5.7580   -7.2580   -0.1360 C.2     1     ****   -0.2660 
      7 N2          4.6030   -5.3040    0.6560 N.2     1     ****   -0.7420 
      8 C6          3.5210   -4.4410    0.6920 C.2     1     ****    0.3640 
      9 C7          2.4380   -4.7000   -0.0710 C.2     1     ****   -0.3520 
     10 C8          2.3740   -5.8790   -0.9640 C.2     1     ****    0.7070 
     11 O1          1.3640   -6.0600   -1.6410 O.2     1     ****   -0.5810 
     12 N3          3.5580   -3.3060    1.5380 N.3     1     ****   -0.6040 
     13 C9          4.6060   -3.1500    2.5640 C.3     1     ****    0.1710 
     14 C10         5.5440   -2.0170    2.1640 C.3     1     ****    0.0650 
     15 C11         3.6340   -0.9250    0.9680 C.3     1     ****    0.0630 
     16 C12         2.7380   -2.0930    1.3800 C.3     1     ****    0.1620 
     17 H1          6.5970   -9.0130   -0.9560 H       1     ****    0.1640 
     18 H2          4.6400   -9.5130   -2.3850 H       1     ****    0.1770 
     19 H3          2.6860   -8.0260   -2.3630 H       1     ****    0.2060 
     20 H4          6.6030   -7.0200    0.4980 H       1     ****    0.1690 
     21 H5          1.5460   -4.0870   -0.0680 H       1     ****    0.1780 
     22 H6          4.1300   -2.9240    3.5270 H       1     ****    0.0780 
     23 H7          5.1800   -4.0700    2.7160 H       1     ****    0.1360 
     24 H8          6.2790   -1.8040    2.9460 H       1     ****    0.1090 
     25 H9          6.0590   -2.2180    1.2190 H       1     ****    0.1290 
     26 H10         3.0830    0.0190    0.9490 H       1     ****    0.1120 
     27 H11         4.1060   -1.0940   -0.0050 H       1     ****    0.1140 
     28 H12         1.9460   -2.1990    0.6340 H       1     ****    0.1220 
     29 H13         2.2410   -1.8710    2.3320 H       1     ****    0.0860 
     30 N4          4.7390   -0.7660    1.9690 N.4     1     ****   -0.7590 
     31 H14         5.3620   -0.0030    1.6700 H       1     ****    0.4540 
     32 H15         4.3440   -0.4680    2.8720 H       1     ****    0.4480 
@<TRIPOS>BOND
     1  2 1 1
     2  3 2 2
     3  4 3 1
     4  5 4 1
     5  6 1 2
     6  6 5 1
     7  7 5 2
     8  8 7 1
     9  9 8 2
    10 10 4 1
    11 10 9 1
    12 11 10 2
    13 12 8 1
    14 13 12 1
    15 14 13 1
    16 16 12 1
    17 16 15 1
    18 17 1 1
    19 18 2 1
    20 19 3 1
    21 20 6 1
    22 21 9 1
    23 22 13 1
    24 23 13 1
    25 24 14 1
    26 25 14 1
    27 26 15 1
    28 27 15 1
    29 28 16 1
    30 29 16 1
    31 30 14 1
    32 30 15 1
    33 31 30 1
    34 32 30 1
@<TRIPOS>SUBSTRUCTURE
1     ****    1
@<TRIPOS>MOLECULE
ZINC00008492
18 19 1 0 0 
SMALL
USER_CHARGES


@<TRIPOS>ATOM
      1 C1          5.0830   -5.8150   -3.3040 C.ar    1     ****   -0.0870 
      2 C2          5.0240   -7.1690   -2.9830 C.ar    1     ****   -0.1540 
      3 C3          4.1920   -7.6220   -1.9430 C.ar    1     ****   -0.1120 
      4 C4          4.1170   -8.9790   -1.6010 C.ar    1     ****   -0.0830 
      5 C5          3.2860   -9.3930   -0.5700 C.ar    1     ****   -0.2420 
      6 C6          2.5530   -8.4270    0.0900 C.ar    1     ****    0.4120 
      7 N1          2.5970   -7.1080   -0.2080 N.ar    1     ****   -0.6740 
      8 C7          3.4050   -6.7080   -1.2110 C.ar    1     ****    0.3310 
      9 C8          3.4900   -5.3620   -1.5610 C.ar    1     ****    0.0960 
     10 C9          4.3120   -4.9050   -2.5910 C.ar    1     ****   -0.1720 
     11 O1          2.7470   -4.4250   -0.8860 O.3     1     ****   -0.4960 
     12 H1          2.2340   -4.9010   -0.2080 H       1     ****    0.4450 
     13 H2          5.7270   -5.4720   -4.1080 H       1     ****    0.1370 
     14 H3          5.6330   -7.8710   -3.5490 H       1     ****    0.1360 
     15 H4          4.7050   -9.7200   -2.1370 H       1     ****    0.1410 
     16 H5          3.2150  -10.4380   -0.2920 H       1     ****    0.1460 
     17 H6          1.8870   -8.6930    0.9040 H       1     ****    0.0240 
     18 H7          4.3530   -3.8480   -2.8360 H       1     ****    0.1540 
@<TRIPOS>BOND
     1  2 1 ar
     2  3 2 ar
     3  4 3 ar
     4  5 4 ar
     5  6 5 ar
     6  7 6 ar
     7  8 3 ar
     8  8 7 ar
     9  9 8 ar
    10 10 1 ar
    11 10 9 ar
    12 11 9 1
    13 12 11 1
    14 13 1 1
    15 14 2 1
    16 15 4 1
    17 16 5 1
    18 17 6 1
    19 18 10 1
@<TRIPOS>SUBSTRUCTURE
1     ****    1
@<TRIPOS>MOLECULE
ZINC00009000
18 19 1 0 0 
SMALL
USER_CHARGES


@<TRIPOS>ATOM
      1 C1          2.9320   -7.3370   -2.6330 C.ar    1     ****   -0.2270 
      2 C2          2.0260   -7.7000   -1.6460 C.ar    1     ****   -0.0900 
      3 C3          1.5800   -6.7670   -0.6850 C.ar    1     ****   -0.1010 
      4 C4          0.6570   -7.0730    0.3480 C.ar    1     ****   -0.0090 
      5 C5          0.2540   -6.1050    1.2690 C.ar    1     ****   -0.0580 
      6 C6          0.7670   -4.8170    1.1730 C.ar    1     ****   -0.0850 
      7 C7          1.6780   -4.5060    0.1580 C.ar    1     ****    0.1480 
      8 C8          2.0990   -5.4550   -0.7790 C.ar    1     ****    0.3780 
      9 N1          2.9810   -5.1060   -1.7400 N.ar    1     ****   -0.6210 
     10 C9          3.3760   -6.0350   -2.6360 C.ar    1     ****    0.4020 
     11 O1          2.1970   -3.2370    0.0470 O.3     1     ****   -0.4540 
     12 I1          0.1450   -3.3910    2.5670 I       1     ****   -0.1260 
     13 CL1        -0.0250   -8.6570    0.5290 Cl      1     ****   -0.0850 
     14 H1          1.8180   -2.6910    0.7570 H       1     ****    0.4310 
     15 H2          3.2760   -8.0510   -3.3710 H       1     ****    0.1500 
     16 H3          1.6720   -8.7280   -1.6400 H       1     ****    0.1550 
     17 H4         -0.4550   -6.3630    2.0520 H       1     ****    0.1620 
     18 H5          4.0850   -5.6870   -3.3800 H       1     ****    0.0300 
@<TRIPOS>BOND
     1  2 1 ar
     2  3 2 ar
     3  4 3 ar
     4  5 4 ar
     5  6 5 ar
     6  7 6 ar
     7  8 3 ar
     8  8 7 ar
     9  9 8 ar
    10 10 1 ar
    11 10 9 ar
    12 11 7 1
    13 12 6 1
    14 13 4 1
    15 14 11 1
    16 15 1 1
    17 16 2 1
    18 17 5 1
    19 18 10 1
@<TRIPOS>SUBSTRUCTURE
1     ****    1
@<TRIPOS>MOLECULE
ZINC00011113
26 27 1 0 0 
SMALL
USER_CHARGES


@<TRIPOS>ATOM
      1 C1          4.8050   -9.6440   -0.9760 C.ar    1     ****   -0.0790 
      2 C2          4.6540  -10.2500    0.2590 C.ar    1     ****   -0.2250 
      3 C3          3.8340   -9.6250    1.1740 C.ar    1     ****    0.4210 
      4 N1          3.1720   -8.4700    0.9320 N.ar    1     ****   -0.6990 
      5 C4          3.2970   -7.8750   -0.2860 C.ar    1     ****    0.5530 
      6 C5          4.1310   -8.4530   -1.2510 C.ar    1     ****   -0.2180 
      7 N2          2.6200   -6.6700   -0.5440 N.pl3   1     ****   -0.7300 
      8 C6          1.9350   -6.0580    0.6040 C.3     1     ****    0.1570 
      9 C7          1.6190   -4.5920    0.3340 C.3     1     ****    0.0990 
     10 C8          1.6650   -5.0160   -2.1090 C.3     1     ****    0.1020 
     11 C9          1.9870   -6.4860   -1.8590 C.3     1     ****    0.1490 
     12 H1          5.4520  -10.0880   -1.7270 H       1     ****    0.1590 
     13 H2          5.1660  -11.1740    0.5000 H       1     ****    0.1660 
     14 H3          3.6790  -10.0450    2.1630 H       1     ****    0.0410 
     15 H4          4.2980   -7.9870   -2.2170 H       1     ****    0.1540 
     16 H5          1.0100   -6.6080    0.8170 H       1     ****    0.0660 
     17 H6          2.5630   -6.0950    1.5040 H       1     ****    0.1210 
     18 H7          0.9770   -4.1680    1.1110 H       1     ****    0.1080 
     19 H8          2.5270   -3.9860    0.2430 H       1     ****    0.1170 
     20 H9          1.0530   -4.8850   -3.0060 H       1     ****    0.1080 
     21 H10         2.5720   -4.4080   -2.1960 H       1     ****    0.1180 
     22 H11         2.6250   -6.8190   -2.6830 H       1     ****    0.1120 
     23 H12         1.0670   -7.0830   -1.9000 H       1     ****    0.0570 
     24 N3          0.8810   -4.4730   -0.9590 N.4     1     ****   -0.7620 
     25 H13         0.6570   -3.4840   -1.1350 H       1     ****    0.4550 
     26 H14        -0.0230   -4.9610   -0.8920 H       1     ****    0.4490 
@<TRIPOS>BOND
     1  2 1 ar
     2  3 2 ar
     3  4 3 ar
     4  5 4 ar
     5  6 1 ar
     6  6 5 ar
     7  7 5 1
     8  8 7 1
     9  9 8 1
    10 11 7 1
    11 11 10 1
    12 12 1 1
    13 13 2 1
    14 14 3 1
    15 15 6 1
    16 16 8 1
    17 17 8 1
    18 18 9 1
    19 19 9 1
    20 20 10 1
    21 21 10 1
    22 22 11 1
    23 23 11 1
    24 24 9 1
    25 24 10 1
    26 25 24 1
    27 26 24 1
@<TRIPOS>SUBSTRUCTURE
1     ****    1
@<TRIPOS>MOLECULE
ZINC00013613
14 14 1 0 0 
SMALL
USER_CHARGES


@<TRIPOS>ATOM
      1 C1          4.8620   -8.6150   -0.9560 C.ar    1     ****   -0.1690 
      2 C2          3.6140   -9.0980   -0.5590 C.ar    1     ****   -0.1260 
      3 C3          3.1200   -8.7630    0.6960 C.ar    1     ****    0.0790 
      4 C4          3.8500   -7.9540    1.5580 C.ar    1     ****   -0.1260 
      5 C5          5.0970   -7.4730    1.1570 C.ar    1     ****   -0.1680 
      6 C6          5.6210   -7.8030   -0.1010 C.ar    1     ****    0.1270 
      7 N1          6.8520   -7.3110   -0.5040 N.pl3   1     ****   -0.8160 
      8 F1          1.9210   -9.2250    1.0790 F       1     ****   -0.1450 
      9 H1          7.4120   -6.7530    0.1270 H       1     ****    0.3900 
     10 H2          7.2430   -7.5770   -1.3980 H       1     ****    0.3900 
     11 H3          5.2420   -8.8780   -1.9410 H       1     ****    0.1370 
     12 H4          3.0340   -9.7280   -1.2250 H       1     ****    0.1470 
     13 H5          3.4510   -7.6960    2.5340 H       1     ****    0.1470 
     14 H6          5.6610   -6.8370    1.8350 H       1     ****    0.1370 
@<TRIPOS>BOND
     1  2 1 ar
     2  3 2 ar
     3  4 3 ar
     4  5 4 ar
     5  6 1 ar
     6  6 5 ar
     7  7 6 1
     8  8 3 1
     9  9 7 1
    10 10 7 1
    11 11 1 1
    12 12 2 1
    13 13 4 1
    14 14 5 1
@<TRIPOS>SUBSTRUCTURE
1     ****    1
@<TRIPOS>MOLECULE
ZINC00013614
14 14 1 0 0 
SMALL
USER_CHARGES


@<TRIPOS>ATOM
      1 C1          4.8750   -8.5780   -0.9960 C.ar    1     ****   -0.1980 
      2 C2          3.6050   -8.9980   -0.5900 C.ar    1     ****   -0.0620 
      3 C3          3.1530   -8.6840    0.6890 C.ar    1     ****   -0.0750 
      4 C4          3.9560   -7.9540    1.5620 C.ar    1     ****   -0.0620 
      5 C5          5.2240   -7.5380    1.1490 C.ar    1     ****   -0.1970 
      6 C6          5.7000   -7.8500   -0.1310 C.ar    1     ****    0.1610 
      7 N1          6.9520   -7.4200   -0.5440 N.pl3   1     ****   -0.8260 
      8 BR1         1.4350   -9.2490    1.2440 Br      1     ****   -0.0950 
      9 H1          7.5590   -6.9240    0.0950 H       1     ****    0.3970 
     10 H2          7.3060   -7.6760   -1.4550 H       1     ****    0.3970 
     11 H3          5.2160   -8.8260   -1.9990 H       1     ****    0.1360 
     12 H4          2.9870   -9.5640   -1.2810 H       1     ****    0.1440 
     13 H5          3.6130   -7.7000    2.5610 H       1     ****    0.1440 
     14 H6          5.8410   -6.9650    1.8370 H       1     ****    0.1360 
@<TRIPOS>BOND
     1  2 1 ar
     2  3 2 ar
     3  4 3 ar
     4  5 4 ar
     5  6 1 ar
     6  6 5 ar
     7  7 6 1
     8  8 3 1
     9  9 7 1
    10 10 7 1
    11 11 1 1
    12 12 2 1
    13 13 4 1
    14 14 5 1
@<TRIPOS>SUBSTRUCTURE
1     ****    1
@<TRIPOS>MOLECULE
ZINC00013615
14 14 1 0 0 
SMALL
USER_CHARGES


@<TRIPOS>ATOM
      1 C1          4.8750   -8.5580   -1.0140 C.ar    1     ****   -0.2020 
      2 C2          3.6010   -8.9590   -0.6000 C.ar    1     ****   -0.0550 
      3 C3          3.1700   -8.6610    0.6910 C.ar    1     ****   -0.0270 
      4 C4          4.0010   -7.9660    1.5680 C.ar    1     ****   -0.0550 
      5 C5          5.2730   -7.5690    1.1460 C.ar    1     ****   -0.2020 
      6 C6          5.7270   -7.8660   -0.1450 C.ar    1     ****    0.1670 
      7 N1          6.9820   -7.4550   -0.5650 N.pl3   1     ****   -0.8280 
      8 I1          1.2760   -9.2540    1.3120 I       1     ****   -0.1500 
      9 H1          7.6080   -6.9860    0.0760 H       1     ****    0.3980 
     10 H2          7.3200   -7.7010   -1.4860 H       1     ****    0.3980 
     11 H3          5.1980   -8.7930   -2.0250 H       1     ****    0.1360 
     12 H4          2.9660   -9.4970   -1.2990 H       1     ****    0.1420 
     13 H5          3.6810   -7.7220    2.5770 H       1     ****    0.1420 
     14 H6          5.9110   -7.0240    1.8380 H       1     ****    0.1360 
@<TRIPOS>BOND
     1  2 1 ar
     2  3 2 ar
     3  4 3 ar
     4  5 4 ar
     5  6 1 ar
     6  6 5 ar
     7  7 6 1
     8  8 3 1
     9  9 7 1
    10 10 7 1
    11 11 1 1
    12 12 2 1
    13 13 4 1
    14 14 5 1
@<TRIPOS>SUBSTRUCTURE
1     ****    1
@<TRIPOS>MOLECULE
ZINC00013616
14 14 1 0 0 
SMALL
USER_CHARGES


@<TRIPOS>ATOM
      1 C1          5.7010   -9.3520    0.7880 C.ar    1     ****   -0.0960 
      2 C2          4.4760   -9.4370    1.4550 C.ar    1     ****   -0.1760 
      3 C3          3.3970   -8.6300    1.0740 C.ar    1     ****    0.1390 
      4 C4          3.5710   -7.7240    0.0200 C.ar    1     ****   -0.1620 
      5 C5          4.7970   -7.6420   -0.6450 C.ar    1     ****    0.0640 
      6 C6          5.8640   -8.4550   -0.2650 C.ar    1     ****   -0.1420 
      7 I1          5.0340   -6.2950   -2.2130 I       1     ****   -0.1490 
      8 N1          2.1890   -8.7030    1.7500 N.pl3   1     ****   -0.8200 
      9 H1          1.4000   -8.1450    1.4530 H       1     ****    0.3930 
     10 H2          2.0560   -9.3820    2.4890 H       1     ****    0.3920 
     11 H3          6.5280   -9.9880    1.0930 H       1     ****    0.1350 
     12 H4          4.3710  -10.1410    2.2770 H       1     ****    0.1350 
     13 H5          2.7410   -7.0860   -0.2760 H       1     ****    0.1430 
     14 H6          6.8240   -8.4030   -0.7720 H       1     ****    0.1440 
@<TRIPOS>BOND
     1  2 1 ar
     2  3 2 ar
     3  4 3 ar
     4  5 4 ar
     5  6 1 ar
     6  6 5 ar
     7  7 5 1
     8  8 3 1
     9  9 8 1
    10 10 8 1
    11 11 1 1
    12 12 2 1
    13 13 4 1
    14 14 6 1
@<TRIPOS>SUBSTRUCTURE
1     ****    1
@<TRIPOS>MOLECULE
ZINC00014362
20 21 1 0 0 
SMALL
USER_CHARGES


@<TRIPOS>ATOM
      1 C1          2.2330   -0.1560    0.3980 C.ar    1     ****   -0.1550 
      2 C2          3.1130   -0.5310   -0.6250 C.ar    1     ****   -0.0790 
      3 C3          3.6550   -1.8100   -0.6400 C.ar    1     ****    0.0060 
      4 C4          3.3210   -2.7130    0.3620 C.ar    1     ****   -0.0790 
      5 C5          2.4410   -2.3310    1.3830 C.ar    1     ****   -0.1570 
      6 C6          1.8750   -1.0440    1.4270 C.ar    1     ****    0.0820 
      7 N1          0.9740   -0.6570    2.4720 N.am    1     ****   -0.4370 
      8 C7          0.7440   -1.3700    3.6300 C.2     1     ****    0.6940 
      9 O1          1.2210   -2.4090    4.0540 O.2     1     ****   -0.5450 
     10 C8         -0.2470   -0.6150    4.4100 C.2     1     ****   -0.1700 
     11 C9         -0.5600    0.4850    3.7330 C.2     1     ****   -0.1700 
     12 C10         0.2030    0.4860    2.4770 C.2     1     ****    0.6940 
     13 O2          0.0670    1.3790    1.6570 O.2     1     ****   -0.5450 
     14 I1          4.9600   -2.3710   -2.1550 I       1     ****   -0.1400 
     15 H1          1.8640    0.8640    0.3640 H       1     ****    0.1660 
     16 H2          3.3620    0.1960   -1.3950 H       1     ****    0.1480 
     17 H3          3.7270   -3.7220    0.3710 H       1     ****    0.1480 
     18 H4          2.2030   -3.0900    2.1210 H       1     ****    0.1660 
     19 H5         -0.6280   -0.9240    5.3680 H       1     ****    0.1850 
     20 H6         -1.2530    1.2570    4.0230 H       1     ****    0.1850 
@<TRIPOS>BOND
     1  2 1 ar
     2  3 2 ar
     3  4 3 ar
     4  5 4 ar
     5  6 1 ar
     6  6 5 ar
     7  7 6 1
     8  8 7 1
     9  9 8 2
    10 10 8 1
    11 11 10 2
    12 12 7 1
    13 12 11 1
    14 13 12 2
    15 14 3 1
    16 15 1 1
    17 16 2 1
    18 17 4 1
    19 18 5 1
    20 19 10 1
    21 20 11 1
@<TRIPOS>SUBSTRUCTURE
1     ****    1
@<TRIPOS>MOLECULE
ZINC00015171
20 21 1 0 0 
SMALL
USER_CHARGES


@<TRIPOS>ATOM
      1 C1          3.9010   -5.8410   -1.3280 C.ar    1     ****   -0.0930 
      2 C2          3.4910   -4.5050   -1.2860 C.ar    1     ****   -0.1690 
      3 C3          2.4450   -4.1300   -0.4480 C.ar    1     ****   -0.0130 
      4 C4          1.8110   -5.0810    0.3440 C.ar    1     ****   -0.0110 
      5 C5          2.2170   -6.4180    0.3050 C.ar    1     ****   -0.1160 
      6 C6          3.2710   -6.8160   -0.5350 C.ar    1     ****   -0.1160 
      7 C7          3.7180   -8.2580   -0.5840 C.2     1     ****    0.9120 
      8 O1          4.6770   -8.5430   -1.3660 O.co2   1     ****   -0.8190 
      9 N1          0.7600   -4.6930    1.1830 N.am    1     ****   -0.4400 
     10 C8          0.3070   -3.3950    1.2730 C.2     1     ****    0.6310 
     11 O2         -0.6100   -3.0300    1.9990 O.2     1     ****   -0.6190 
     12 C9          0.9990   -2.3590    0.4100 C.2     1     ****    0.6310 
     13 O3          0.6130   -1.1980    0.4720 O.2     1     ****   -0.6210 
     14 N2          2.0260   -2.7960   -0.3970 N.am    1     ****   -0.4440 
     15 H1          0.3080   -5.4000    1.7540 H       1     ****    0.3350 
     16 H2          2.5010   -2.1160   -0.9820 H       1     ****    0.3260 
     17 H3          4.7200   -6.1110   -1.9900 H       1     ****    0.1630 
     18 H4          3.9970   -3.7740   -1.9110 H       1     ****    0.1180 
     19 H5          1.7110   -7.1500    0.9300 H       1     ****    0.1660 
     20 O4          3.1020   -9.0830    0.1610 O.co2   1     ****   -0.8220 
@<TRIPOS>BOND
     1  2 1 ar
     2  3 2 ar
     3  4 3 ar
     4  5 4 ar
     5  6 1 ar
     6  6 5 ar
     7  7 6 1
     8  8 7 1
     9  9 4 1
    10 10 9 1
    11 11 10 2
    12 12 10 1
    13 13 12 2
    14 14 3 1
    15 14 12 1
    16 15 9 1
    17 16 14 1
    18 17 1 1
    19 18 2 1
    20 19 5 1
    21 20 7 2
@<TRIPOS>SUBSTRUCTURE
1     ****    1
@<TRIPOS>MOLECULE
ZINC00015872
27 28 1 0 0 
SMALL
USER_CHARGES


@<TRIPOS>ATOM
      1 C1          3.4740   -8.2790   -0.8090 C.ar    1     ****   -0.1080 
      2 C2          3.8890   -8.3840    0.5140 C.ar    1     ****   -0.1000 
      3 C3          3.4970   -7.4210    1.4400 C.ar    1     ****   -0.1090 
      4 C4          2.6840   -6.3540    1.0410 C.ar    1     ****    0.0330 
      5 C5          2.2440   -6.2270   -0.2940 C.ar    1     ****    0.0730 
      6 C6          2.6630   -7.2130   -1.2080 C.ar    1     ****   -0.1450 
      7 N1          1.4140   -5.1750   -0.6930 N.pl3   1     ****   -0.6410 
      8 C7         -0.0040   -5.3160   -0.3360 C.3     1     ****    0.1620 
      9 C8         -0.6820   -3.9500   -0.3600 C.3     1     ****    0.1010 
     10 C9          1.0230   -3.1400   -1.9930 C.3     1     ****    0.1010 
     11 C10         1.6920   -4.5110   -1.9700 C.3     1     ****    0.1650 
     12 CL1         2.2890   -5.1640    2.2380 Cl      1     ****   -0.0750 
     13 H1          3.7780   -9.0280   -1.5350 H       1     ****    0.1550 
     14 H2          4.5200   -9.2120    0.8230 H       1     ****    0.1590 
     15 H3          3.8360   -7.5080    2.4690 H       1     ****    0.1670 
     16 H4          2.3450   -7.1740   -2.2470 H       1     ****    0.1340 
     17 H5         -0.4940   -5.9920   -1.0480 H       1     ****    0.0470 
     18 H6         -0.1340   -5.7510    0.6620 H       1     ****    0.1210 
     19 H7         -1.7660   -4.0340   -0.2410 H       1     ****    0.1070 
     20 H8         -0.2820   -3.2790    0.4070 H       1     ****    0.1220 
     21 H9          1.0950   -2.6710   -2.9790 H       1     ****    0.1070 
     22 H10         1.4390   -2.4660   -1.2370 H       1     ****    0.1220 
     23 H11         2.7720   -4.3720   -2.1070 H       1     ****    0.1190 
     24 H12         1.3210   -5.1190   -2.8040 H       1     ****    0.0420 
     25 N2         -0.4350   -3.2960   -1.6850 N.4     1     ****   -0.7610 
     26 H13        -0.8860   -2.3710   -1.6970 H       1     ****    0.4560 
     27 H14        -0.8900   -3.8410   -2.4310 H       1     ****    0.4470 
@<TRIPOS>BOND
     1  2 1 ar
     2  3 2 ar
     3  4 3 ar
     4  5 4 ar
     5  6 1 ar
     6  6 5 ar
     7  7 5 1
     8  8 7 1
     9  9 8 1
    10 11 7 1
    11 11 10 1
    12 12 4 1
    13 13 1 1
    14 14 2 1
    15 15 3 1
    16 16 6 1
    17 17 8 1
    18 18 8 1
    19 19 9 1
    20 20 9 1
    21 21 10 1
    22 22 10 1
    23 23 11 1
    24 24 11 1
    25 25 9 1
    26 25 10 1
    27 26 25 1
    28 27 25 1
@<TRIPOS>SUBSTRUCTURE
1     ****    1
@<TRIPOS>MOLECULE
ZINC00016356
13 13 1 0 0 
SMALL
USER_CHARGES


@<TRIPOS>ATOM
      1 C1          5.2090   -9.2210   -2.1650 C.2     1     ****    0.1020 
      2 C2          3.8800   -9.0910   -2.0640 C.2     1     ****   -0.1680 
      3 C3          3.2750   -9.0650   -0.7030 C.2     1     ****    0.7310 
      4 O1          2.0640   -8.9480   -0.5370 O.2     1     ****   -0.5780 
      5 N1          4.1750   -9.1810    0.3450 N.am    1     ****   -0.5840 
      6 C4          5.5540   -9.3160    0.2310 C.2     1     ****    0.8040 
      7 O2          6.2950   -9.4150    1.2080 O.2     1     ****   -0.6170 
      8 N2          6.0230   -9.3300   -1.0700 N.am    1     ****   -0.4630 
      9 C5          3.0590   -8.9800   -3.2190 C.1     1     ****    0.2150 
     10 N3          2.3940   -8.8900   -4.1660 N.1     1     ****   -0.3420 
     11 H1          3.7920   -9.1670    1.2850 H       1     ****    0.3610 
     12 H2          7.0230   -9.4260   -1.2200 H       1     ****    0.3630 
     13 H3          5.7230   -9.2490   -3.1200 H       1     ****    0.1770 
@<TRIPOS>BOND
     1  2 1 2
     2  3 2 1
     3  4 3 2
     4  5 3 1
     5  6 5 1
     6  7 6 2
     7  8 1 1
     8  8 6 1
     9  9 2 1
    10 10 9 3
    11 11 5 1
    12 12 8 1
    13 13 1 1
@<TRIPOS>SUBSTRUCTURE
1     ****    1
@<TRIPOS>MOLECULE
ZINC00016827
29 31 1 0 0 
SMALL
USER_CHARGES


@<TRIPOS>ATOM
      1 C1          4.0080   -7.6100   -2.0370 C.ar    1     ****   -0.1420 
      2 C2          2.9560   -8.3810   -1.5720 C.ar    1     ****   -0.1190 
      3 C3          1.9890   -7.8020   -0.7520 C.ar    1     ****   -0.1740 
      4 C4          2.0460   -6.4620   -0.3810 C.ar    1     ****    0.4300 
      5 C5          3.1110   -5.6610   -0.8420 C.ar    1     ****   -0.1840 
      6 C6          4.0860   -6.2650   -1.6770 C.ar    1     ****   -0.1060 
      7 C7          3.1380   -4.2960   -0.4340 C.ar    1     ****    0.1940 
      8 C8          2.0840   -3.7900    0.3580 C.ar    1     ****   -0.2750 
      9 C9          1.0960   -4.6840    0.7740 C.ar    1     ****    0.4770 
     10 N1          1.0740   -5.9860    0.4080 N.ar    1     ****   -0.7050 
     11 C10        -0.0640   -4.2450    1.6290 C.3     1     ****   -0.1340 
     12 C11         0.1980   -2.9430    2.3770 C.3     1     ****   -0.0790 
     13 C12         0.7270   -1.8960    1.4100 C.3     1     ****   -0.0750 
     14 C13         2.0580   -2.3450    0.8070 C.3     1     ****   -0.0190 
     15 N2          4.1570   -3.4410   -0.8620 N.pl3   1     ****   -0.8300 
     16 H1          4.2250   -2.5030   -0.4920 H       1     ****    0.4030 
     17 H2          4.9640   -3.7980   -1.3520 H       1     ****    0.4030 
     18 H3          4.7670   -8.0480   -2.6770 H       1     ****    0.1320 
     19 H4          2.8820   -9.4300   -1.8440 H       1     ****    0.1340 
     20 H5          1.1680   -8.4230   -0.3970 H       1     ****    0.1500 
     21 H6          4.9260   -5.6960   -2.0650 H       1     ****    0.1240 
     22 H7         -0.9370   -4.1220    0.9740 H       1     ****    0.0620 
     23 H8         -0.3070   -5.0320    2.3520 H       1     ****    0.0690 
     24 H9         -0.7290   -2.5930    2.8450 H       1     ****    0.0450 
     25 H10         0.9260   -3.1080    3.1810 H       1     ****    0.0460 
     26 H11        -0.0060   -1.7320    0.6090 H       1     ****    0.0470 
     27 H12         0.8600   -0.9370    1.9220 H       1     ****    0.0410 
     28 H13         2.8500   -2.2090    1.5540 H       1     ****    0.0350 
     29 H14         2.2760   -1.6840   -0.0400 H       1     ****    0.0470 
@<TRIPOS>BOND
     1  2 1 ar
     2  3 2 ar
     3  4 3 ar
     4  5 4 ar
     5  6 1 ar
     6  6 5 ar
     7  7 5 ar
     8  8 7 ar
     9  9 8 ar
    10 10 4 ar
    11 10 9 ar
    12 11 9 1
    13 12 11 1
    14 13 12 1
    15 14 8 1
    16 14 13 1
    17 15 7 1
    18 16 15 1
    19 17 15 1
    20 18 1 1
    21 19 2 1
    22 20 3 1
    23 21 6 1
    24 22 11 1
    25 23 11 1
    26 24 12 1
    27 25 12 1
    28 26 13 1
    29 27 13 1
    30 28 14 1
    31 29 14 1
@<TRIPOS>SUBSTRUCTURE
1     ****    1
@<TRIPOS>MOLECULE
ZINC00016956
23 24 1 0 0 
SMALL
USER_CHARGES


@<TRIPOS>ATOM
      1 C1          3.4340   -4.8020    1.5480 C.2     1     ****    0.0040 
      2 C2          4.1020   -5.8530    2.0180 C.2     1     ****   -0.0330 
      3 C3          3.7970   -7.2110    1.5470 C.2     1     ****    0.7050 
      4 O1          4.4010   -8.1920    1.9660 O.2     1     ****   -0.5810 
      5 N1          2.7800   -7.2610    0.6090 N.am    1     ****   -0.5840 
      6 C4          2.0560   -6.1810    0.0950 C.2     1     ****    0.8130 
      7 O2          1.1660   -6.3680   -0.7370 O.2     1     ****   -0.6350 
      8 N2          2.4310   -4.9220    0.6030 N.am    1     ****   -0.3790 
      9 C5          1.7450   -3.6990    0.1560 C.3     1     ****    0.3160 
     10 C6          0.2850   -3.6330    0.5990 C.3     1     ****   -0.1060 
     11 C7         -0.3190   -2.7950   -0.5010 C.3     1     ****   -0.1040 
     12 C8          0.4500   -3.2660   -1.7190 C.3     1     ****    0.1230 
     13 O3          1.7670   -3.6170   -1.2700 O.3     1     ****   -0.4150 
     14 F1          5.0780   -5.7350    2.9370 F       1     ****   -0.1340 
     15 H1          2.5310   -8.1780    0.2560 H       1     ****    0.3580 
     16 H2          3.6670   -3.8040    1.9030 H       1     ****    0.1770 
     17 H3          2.2600   -2.8260    0.5900 H       1     ****    0.0820 
     18 H4         -0.1900   -4.6200    0.6140 H       1     ****    0.0760 
     19 H5          0.1670   -3.1950    1.5940 H       1     ****    0.0600 
     20 H6         -1.4000   -2.9170   -0.6050 H       1     ****    0.0700 
     21 H7         -0.1090   -1.7350   -0.3150 H       1     ****    0.0510 
     22 H8         -0.0070   -4.1610   -2.1540 H       1     ****    0.0740 
     23 H9          0.5180   -2.4980   -2.4950 H       1     ****    0.0630 
@<TRIPOS>BOND
     1  2 1 2
     2  3 2 1
     3  4 3 2
     4  5 3 1
     5  6 5 1
     6  7 6 2
     7  8 1 1
     8  8 6 1
     9  9 8 1
    10 10 9 1
    11 11 10 1
    12 12 11 1
    13 13 9 1
    14 13 12 1
    15 14 2 1
    16 15 5 1
    17 16 1 1
    18 17 9 1
    19 18 10 1
    20 19 10 1
    21 20 11 1
    22 21 11 1
    23 22 12 1
    24 23 12 1
@<TRIPOS>SUBSTRUCTURE
1     ****    1
@<TRIPOS>MOLECULE
ZINC00017725
25 27 1 0 0 
SMALL
USER_CHARGES


@<TRIPOS>ATOM
      1 C1         -1.4440    5.0370    3.6890 C.2     1     ****   -0.0280 
      2 C2         -2.1390    3.9580    3.1940 C.2     1     ****   -0.1310 
      3 C3         -1.4730    2.9990    2.4410 C.2     1     ****   -0.0660 
      4 N1         -0.1360    3.0660    2.1560 N.pl3   1     ****    0.0550 
      5 C4          0.5580    4.1510    2.6550 C.2     1     ****    0.1140 
      6 C5         -0.0920    5.1320    3.4170 C.2     1     ****   -0.1470 
      7 C6          1.9120    4.2940    2.4120 C.2     1     ****   -0.2390 
      8 C7          2.5860    3.3480    1.6650 C.2     1     ****    0.2580 
      9 C8          1.9260    2.2220    1.1330 C.1     1     ****   -0.0970 
     10 C9          0.5250    2.1010    1.4000 C.2     1     ****    0.0380 
     11 C10        -0.1540    0.9720    0.8710 C.2     1     ****   -0.1420 
     12 C11         0.4860   -0.0060    0.1130 C.2     1     ****   -0.0530 
     13 C12         1.8350    0.1040   -0.1490 C.2     1     ****   -0.0960 
     14 C13         2.5490    1.1960    0.3490 C.2     1     ****    0.0410 
     15 CL1         4.2380    1.2010   -0.0600 Cl      1     ****   -0.0220 
     16 O1          3.9190    3.6180    1.5060 O.3     1     ****   -0.4530 
     17 H1          4.3310    2.9190    0.9750 H       1     ****    0.4650 
     18 H2         -1.9450    5.7980    4.2800 H       1     ****    0.1870 
     19 H3         -3.2020    3.8540    3.3900 H       1     ****    0.1930 
     20 H4         -2.0550    2.1660    2.0710 H       1     ****    0.1960 
     21 H5          0.4570    5.9860    3.8090 H       1     ****    0.1920 
     22 H6          2.4600    5.1490    2.8050 H       1     ****    0.2050 
     23 H7         -1.2140    0.8000    1.0240 H       1     ****    0.1630 
     24 H8         -0.0770   -0.8530   -0.2710 H       1     ****    0.1790 
     25 H9          2.3240   -0.6650   -0.7420 H       1     ****    0.1880 
@<TRIPOS>BOND
     1  2 1 1
     2  3 2 2
     3  4 3 1
     4  5 4 1
     5  6 1 2
     6  6 5 1
     7  7 5 2
     8  8 7 1
     9  9 8 2
    10 10 4 1
    11 10 9 1
    12 11 10 2
    13 12 11 1
    14 13 12 2
    15 14 9 2
    16 14 13 1
    17 15 14 1
    18 16 8 1
    19 17 16 1
    20 18 1 1
    21 19 2 1
    22 20 3 1
    23 21 6 1
    24 22 7 1
    25 23 11 1
    26 24 12 1
    27 25 13 1
@<TRIPOS>SUBSTRUCTURE
1     ****    1
@<TRIPOS>MOLECULE
ZINC00018735
20 21 1 0 0 
SMALL
USER_CHARGES


@<TRIPOS>ATOM
      1 C1          3.8020   -7.7900    0.6300 C.ar    1     ****   -0.2100 
      2 C2          2.5300   -7.5630    0.1050 C.ar    1     ****   -0.0350 
      3 C3          2.0550   -6.2530   -0.0080 C.ar    1     ****   -0.2210 
      4 C4          2.8420   -5.1620    0.4000 C.ar    1     ****    0.2040 
      5 C5          4.1150   -5.4010    0.9250 C.ar    1     ****   -0.2100 
      6 C6          4.5880   -6.7110    1.0370 C.ar    1     ****    0.0730 
      7 CL1         6.1580   -6.9980    1.6850 Cl      1     ****   -0.1330 
      8 N1          2.3430   -3.8620    0.2760 N.pl3   1     ****   -0.5820 
      9 C7          1.0900   -3.6010   -0.2380 C.2     1     ****    0.0890 
     10 C8          0.2610   -4.5710   -0.6560 C.2     1     ****   -0.3310 
     11 C9          0.7040   -5.9890   -0.5640 C.2     1     ****    0.5820 
     12 O1         -0.0270   -6.8990   -0.9360 O.2     1     ****   -0.6290 
     13 C10         0.6280   -2.1180   -0.3340 C.2     1     ****    0.9180 
     14 O2          1.4780   -1.2760    0.0840 O.co2   1     ****   -0.8250 
     15 H1          2.9010   -3.0680    0.5670 H       1     ****    0.4740 
     16 H2          4.1680   -8.8100    0.7170 H       1     ****    0.1350 
     17 H3          1.9240   -8.4080   -0.2090 H       1     ****    0.1530 
     18 H4          4.7350   -4.5670    1.2450 H       1     ****    0.1440 
     19 H5         -0.7270   -4.3870   -1.0630 H       1     ****    0.1780 
     20 O3         -0.5240   -1.9130   -0.8100 O.co2   1     ****   -0.7740 
@<TRIPOS>BOND
     1  2 1 ar
     2  3 2 ar
     3  4 3 ar
     4  5 4 ar
     5  6 1 ar
     6  6 5 ar
     7  7 6 1
     8  8 4 1
     9  9 8 1
    10 10 9 2
    11 11 3 1
    12 11 10 1
    13 12 11 2
    14 13 9 1
    15 14 13 1
    16 15 8 1
    17 16 1 1
    18 17 2 1
    19 18 5 1
    20 19 10 1
    21 20 13 2
@<TRIPOS>SUBSTRUCTURE
1     ****    1
@<TRIPOS>MOLECULE
ZINC00019372
25 27 1 0 0 
SMALL
USER_CHARGES


@<TRIPOS>ATOM
      1 C1          5.1810   -7.6460    0.8090 C.ar    1     ****   -0.0550 
      2 C2          4.2700   -7.5700    1.8570 C.ar    1     ****   -0.1540 
      3 C3          3.2630   -6.6120    1.8250 C.ar    1     ****   -0.0130 
      4 C4          3.1760   -5.7350    0.7370 C.ar    1     ****   -0.3840 
      5 C5          4.0730   -5.7870   -0.3380 C.ar    1     ****    0.2060 
      6 C6          5.0830   -6.7650   -0.2730 C.ar    1     ****   -0.1450 
      7 N1          3.9960   -4.9160   -1.4480 N.pl3   1     ****   -0.2990 
      8 C7          3.0240   -3.9740   -1.6870 C.2     1     ****    0.7320 
      9 N2          2.9020   -3.1670   -2.6990 N.2     1     ****   -0.6100 
     10 C8          1.6600   -2.3760   -2.4790 C.3     1     ****    0.0960 
     11 C9          1.1170   -2.7160   -1.0900 C.3     1     ****    0.1930 
     12 N3          2.0020   -3.8200   -0.7270 N.pl3   1     ****   -0.7920 
     13 S1          1.8860   -4.5420    0.7790 S.o2    1     ****    1.5400 
     14 O1          2.2510   -3.5740    1.7950 O.3     1     ****   -0.6400 
     15 O2          0.6370   -5.2740    0.8480 O.3     1     ****   -0.6480 
     16 O3          4.9360   -5.0040   -2.4740 O.3     1     ****   -0.3770 
     17 H1          5.4490   -4.1860   -2.3530 H       1     ****    0.4480 
     18 H2          5.9710   -8.3920    0.8290 H       1     ****    0.1440 
     19 H3          4.3460   -8.2540    2.6970 H       1     ****    0.1490 
     20 H4          2.5560   -6.5530    2.6480 H       1     ****    0.1560 
     21 H5          5.8130   -6.8600   -1.0740 H       1     ****    0.1620 
     22 H6          1.8790   -1.3070   -2.5630 H       1     ****    0.0760 
     23 H7          0.9310   -2.6340   -3.2560 H       1     ****    0.0770 
     24 H8          1.2400   -1.8720   -0.4050 H       1     ****    0.0660 
     25 H9          0.0690   -3.0250   -1.1310 H       1     ****    0.0720 
@<TRIPOS>BOND
     1  2 1 ar
     2  3 2 ar
     3  4 3 ar
     4  5 4 ar
     5  6 1 ar
     6  6 5 ar
     7  7 5 1
     8  8 7 1
     9  9 8 2
    10 10 9 1
    11 11 10 1
    12 12 8 1
    13 12 11 1
    14 13 4 1
    15 13 12 1
    16 14 13 1
    17 15 13 1
    18 16 7 1
    19 17 16 1
    20 18 1 1
    21 19 2 1
    22 20 3 1
    23 21 6 1
    24 22 10 1
    25 23 10 1
    26 24 11 1
    27 25 11 1
@<TRIPOS>SUBSTRUCTURE
1     ****    1
@<TRIPOS>MOLECULE
ZINC00019638
24 26 1 0 0 
SMALL
USER_CHARGES


@<TRIPOS>ATOM
      1 C1          5.6730   -7.9270    0.8070 C.ar    1     ****   -0.1480 
      2 C2          5.8260   -8.4890   -0.4590 C.ar    1     ****   -0.0900 
      3 C3          5.1520   -7.9390   -1.5440 C.ar    1     ****   -0.1750 
      4 C4          4.3260   -6.8310   -1.3560 C.ar    1     ****    0.1740 
      5 C5          4.1490   -6.2510   -0.0910 C.ar    1     ****   -0.1550 
      6 C6          4.8430   -6.8160    0.9900 C.ar    1     ****   -0.0900 
      7 C7          3.2800   -5.0770    0.0630 C.2     1     ****    0.4190 
      8 N1          3.1450   -4.1320   -0.8450 N.2     1     ****   -0.5020 
      9 C8          2.2430   -3.1690   -0.4200 C.ar    1     ****    0.0830 
     10 C9          1.8630   -2.0130   -1.1340 C.ar    1     ****   -0.0710 
     11 C10         0.9370   -1.1270   -0.5760 C.ar    1     ****   -0.1330 
     12 C11         0.3870   -1.3780    0.6760 C.ar    1     ****   -0.1180 
     13 C12         0.7460   -2.5170    1.4020 C.ar    1     ****   -0.0920 
     14 C13         1.6780   -3.4000    0.8340 C.ar    1     ****   -0.0870 
     15 S1          2.3100   -4.8680    1.4710 S.2     1     ****   -0.0420 
     16 F1          3.6840   -6.3340   -2.4250 F       1     ****   -0.1190 
     17 H1          6.2040   -8.3510    1.6550 H       1     ****    0.1410 
     18 H2          6.4720   -9.3510   -0.5980 H       1     ****    0.1410 
     19 H3          5.2660   -8.3690   -2.5350 H       1     ****    0.1530 
     20 H4          4.7640   -6.3980    1.9910 H       1     ****    0.1450 
     21 H5          2.2890   -1.8110   -2.1130 H       1     ****    0.1540 
     22 H6          0.6450   -0.2370   -1.1270 H       1     ****    0.1370 
     23 H7         -0.3330   -0.6800    1.0970 H       1     ****    0.1360 
     24 H8          0.3130   -2.7080    2.3790 H       1     ****    0.1400 
@<TRIPOS>BOND
     1  2 1 ar
     2  3 2 ar
     3  4 3 ar
     4  5 4 ar
     5  6 1 ar
     6  6 5 ar
     7  7 5 1
     8  8 7 2
     9  9 8 1
    10 10 9 ar
    11 11 10 ar
    12 12 11 ar
    13 13 12 ar
    14 14 9 ar
    15 14 13 ar
    16 15 7 1
    17 15 14 1
    18 16 4 1
    19 17 1 1
    20 18 2 1
    21 19 3 1
    22 20 6 1
    23 21 10 1
    24 22 11 1
    25 23 12 1
    26 24 13 1
@<TRIPOS>SUBSTRUCTURE
1     ****    1
@<TRIPOS>MOLECULE
ZINC00019639
23 25 1 0 0 
SMALL
USER_CHARGES


@<TRIPOS>ATOM
      1 C1          4.7030   -8.2860   -1.4060 C.ar    1     ****   -0.1310 
      2 C2          4.1230   -9.0650   -0.4100 C.ar    1     ****   -0.1160 
      3 C3          3.1570   -8.5310    0.4460 C.ar    1     ****   -0.0920 
      4 C4          2.7870   -7.1870    0.2750 C.ar    1     ****   -0.0890 
      5 C5          3.3530   -6.3870   -0.7160 C.ar    1     ****    0.0830 
      6 C6          4.3270   -6.9490   -1.5690 C.ar    1     ****   -0.0720 
      7 N1          2.8830   -5.0850   -0.7570 N.2     1     ****   -0.5140 
      8 C7          1.9750   -4.8780    0.1770 C.2     1     ****    0.4070 
      9 S1          1.6430   -6.2560    1.1570 S.2     1     ****   -0.0260 
     10 C8          1.2930   -3.5850    0.3810 C.ar    1     ****   -0.0770 
     11 C9          0.3250   -3.3670    1.3690 C.ar    1     ****   -0.2370 
     12 C10        -0.2570   -2.1100    1.4750 C.ar    1     ****    0.3940 
     13 N2          0.0470   -1.0630    0.6810 N.ar    1     ****   -0.6540 
     14 C11         0.9800   -1.2880   -0.2650 C.ar    1     ****    0.3890 
     15 C12         1.6200   -2.5050   -0.4530 C.ar    1     ****   -0.2020 
     16 H1          5.4530   -8.7170   -2.0630 H       1     ****    0.1380 
     17 H2          4.4250  -10.1030   -0.2960 H       1     ****    0.1370 
     18 H3          2.7080   -9.1440    1.2220 H       1     ****    0.1410 
     19 H4          4.7830   -6.3460   -2.3480 H       1     ****    0.1530 
     20 H5          0.0080   -4.1420    2.0590 H       1     ****    0.1480 
     21 H6         -1.0100   -1.9110    2.2320 H       1     ****    0.0260 
     22 H7          1.2140   -0.4360   -0.8960 H       1     ****    0.0270 
     23 H8          2.3610   -2.5980   -1.2420 H       1     ****    0.1660 
@<TRIPOS>BOND
     1  2 1 ar
     2  3 2 ar
     3  4 3 ar
     4  5 4 ar
     5  6 1 ar
     6  6 5 ar
     7  7 5 1
     8  8 7 2
     9  9 4 1
    10  9 8 1
    11 10 8 1
    12 11 10 ar
    13 12 11 ar
    14 13 12 ar
    15 14 13 ar
    16 15 10 ar
    17 15 14 ar
    18 16 1 1
    19 17 2 1
    20 18 3 1
    21 19 6 1
    22 20 11 1
    23 21 12 1
    24 22 14 1
    25 23 15 1
@<TRIPOS>SUBSTRUCTURE
1     ****    1
@<TRIPOS>MOLECULE
ZINC00021268
31 33 1 0 0 
SMALL
USER_CHARGES


@<TRIPOS>ATOM
      1 C1          4.3950   -7.1400   -1.2640 C.ar    1     ****   -0.1180 
      2 C2          4.2940   -6.1510   -0.2890 C.ar    1     ****   -0.1110 
      3 C3          3.0470   -5.6220    0.0410 C.ar    1     ****   -0.0840 
      4 C4          1.8940   -6.0860   -0.6060 C.ar    1     ****   -0.1270 
      5 C5          1.9920   -7.0740   -1.5800 C.ar    1     ****   -0.1370 
      6 C6          3.2470   -7.6020   -1.9100 C.ar    1     ****   -0.0810 
      7 C7          0.7910   -7.5640   -2.2790 C.2     1     ****    0.5630 
      8 O1          0.9190   -8.3630   -3.2030 O.2     1     ****   -0.5170 
      9 C8         -0.5600   -7.0550   -1.8570 C.2     1     ****    0.0800 
     10 C9         -0.6170   -6.0960   -0.9130 C.2     1     ****   -0.0940 
     11 C10         0.5840   -5.5220   -0.2510 C.2     1     ****    0.5810 
     12 O2          0.5060   -4.6150    0.5710 O.2     1     ****   -0.4940 
     13 CL1        -2.1280   -5.4820   -0.3130 Cl      1     ****   -0.0510 
     14 N1         -1.6430   -7.6330   -2.5260 N.3     1     ****   -0.6460 
     15 C11        -1.9090   -9.0770   -2.4980 C.3     1     ****    0.1690 
     16 C12        -2.1890   -9.5720   -3.9130 C.3     1     ****    0.0940 
     17 O3         -3.2650   -8.8310   -4.4970 O.3     1     ****   -0.4100 
     18 C13        -2.9360   -7.4410   -4.5870 C.3     1     ****    0.0990 
     19 C14        -2.6900   -6.8550   -3.1980 C.3     1     ****    0.1620 
     20 H1          5.3660   -7.5520   -1.5220 H       1     ****    0.1440 
     21 H2          5.1870   -5.7910    0.2140 H       1     ****    0.1440 
     22 H3          2.9910   -4.8500    0.8050 H       1     ****    0.1630 
     23 H4          3.3510   -8.3740   -2.6690 H       1     ****    0.1590 
     24 H5         -1.0790   -9.6420   -2.0580 H       1     ****    0.0650 
     25 H6         -2.7890   -9.2490   -1.8650 H       1     ****    0.0640 
     26 H7         -1.3040   -9.4870   -4.5540 H       1     ****    0.0590 
     27 H8         -2.4840  -10.6260   -3.8900 H       1     ****    0.0730 
     28 H9         -2.0590   -7.3190   -5.2330 H       1     ****    0.0390 
     29 H10        -3.7770   -6.9280   -5.0650 H       1     ****    0.0750 
     30 H11        -3.6100   -6.9110   -2.6040 H       1     ****    0.0700 
     31 H12        -2.4070   -5.8020   -3.3010 H       1     ****    0.0660 
@<TRIPOS>BOND
     1  2 1 ar
     2  3 2 ar
     3  4 3 ar
     4  5 4 ar
     5  6 1 ar
     6  6 5 ar
     7  7 5 1
     8  8 7 2
     9  9 7 1
    10 10 9 2
    11 11 4 1
    12 11 10 1
    13 12 11 2
    14 13 10 1
    15 14 9 1
    16 15 14 1
    17 16 15 1
    18 17 16 1
    19 18 17 1
    20 19 14 1
    21 19 18 1
    22 20 1 1
    23 21 2 1
    24 22 3 1
    25 23 6 1
    26 24 15 1
    27 25 15 1
    28 26 16 1
    29 27 16 1
    30 28 18 1
    31 29 18 1
    32 30 19 1
    33 31 19 1
@<TRIPOS>SUBSTRUCTURE
1     ****    1
@<TRIPOS>MOLECULE
ZINC00022439
36 39 1 0 0 
SMALL
USER_CHARGES


@<TRIPOS>ATOM
      1 C1          6.2370   -9.0540    1.8780 C.ar    1     ****   -0.1280 
      2 C2          5.6290   -8.5800    3.0360 C.ar    1     ****   -0.1360 
      3 C3          5.4600   -7.2070    3.2250 C.ar    1     ****   -0.1290 
      4 C4          5.9090   -6.2780    2.2680 C.ar    1     ****   -0.0260 
      5 C5          6.5040   -6.7750    1.0820 C.ar    1     ****   -0.0650 
      6 C6          6.6680   -8.1580    0.9020 C.ar    1     ****   -0.1300 
      7 C7          6.9380   -5.8260   -0.0100 C.3     1     ****   -0.0390 
      8 C8          5.7590   -5.1380   -0.7130 C.3     1     ****   -0.0660 
      9 C9          4.5980   -4.7040    0.1920 C.3     1     ****   -0.1360 
     10 C10         5.0520   -4.0640    1.4820 C.ar    1     ****    0.4840 
     11 C11         5.7040   -4.8200    2.4700 C.ar    1     ****   -0.2520 
     12 C12         6.1670   -4.1180    3.6090 C.ar    1     ****    0.2150 
     13 C13         5.8690   -2.7290    3.7530 C.ar    1     ****   -0.1860 
     14 C14         6.2250   -1.9450    4.8800 C.ar    1     ****   -0.1040 
     15 C15         5.9140   -0.5880    4.9580 C.ar    1     ****   -0.1420 
     16 C16         5.2400    0.0180    3.9110 C.ar    1     ****   -0.1160 
     17 C17         4.8820   -0.7370    2.7960 C.ar    1     ****   -0.1750 
     18 C18         5.1810   -2.0930    2.6990 C.ar    1     ****    0.4310 
     19 N1          4.8010   -2.7390    1.5910 N.ar    1     ****   -0.7000 
     20 N2          6.8790   -4.7930    4.6080 N.pl3   1     ****   -0.8330 
     21 H1          7.2200   -5.7300    4.4390 H       1     ****    0.4150 
     22 H2          7.2790   -4.2970    5.3910 H       1     ****    0.4050 
     23 H3          6.3660  -10.1220    1.7300 H       1     ****    0.1320 
     24 H4          5.2800   -9.2780    3.7910 H       1     ****    0.1320 
     25 H5          4.9630   -6.8660    4.1310 H       1     ****    0.1440 
     26 H6          7.1250   -8.5450   -0.0050 H       1     ****    0.1320 
     27 H7          7.6110   -5.0740    0.4220 H       1     ****    0.0560 
     28 H8          7.5410   -6.3510   -0.7610 H       1     ****    0.0460 
     29 H9          6.1480   -4.2640   -1.2500 H       1     ****    0.0500 
     30 H10         5.3530   -5.8110   -1.4800 H       1     ****    0.0430 
     31 H11         3.9630   -4.0030   -0.3650 H       1     ****    0.0680 
     32 H12         3.9500   -5.5600    0.4230 H       1     ****    0.0630 
     33 H13         6.7520   -2.3800    5.7250 H       1     ****    0.1260 
     34 H14         6.1980   -0.0120    5.8330 H       1     ****    0.1330 
     35 H15         4.9910    1.0740    3.9570 H       1     ****    0.1350 
     36 H16         4.3530   -0.2440    1.9820 H       1     ****    0.1510 
@<TRIPOS>BOND
     1  2 1 ar
     2  3 2 ar
     3  4 3 ar
     4  5 4 ar
     5  6 1 ar
     6  6 5 ar
     7  7 5 1
     8  8 7 1
     9  9 8 1
    10 10 9 1
    11 11 4 1
    12 11 10 ar
    13 12 11 ar
    14 13 12 ar
    15 14 13 ar
    16 15 14 ar
    17 16 15 ar
    18 17 16 ar
    19 18 13 ar
    20 18 17 ar
    21 19 10 ar
    22 19 18 ar
    23 20 12 1
    24 21 20 1
    25 22 20 1
    26 23 1 1
    27 24 2 1
    28 25 3 1
    29 26 6 1
    30 27 7 1
    31 28 7 1
    32 29 8 1
    33 30 8 1
    34 31 9 1
    35 32 9 1
    36 33 14 1
    37 34 15 1
    38 35 16 1
    39 36 17 1
@<TRIPOS>SUBSTRUCTURE
1     ****    1
@<TRIPOS>MOLECULE
ZINC00023387
33 36 1 0 0 
SMALL
USER_CHARGES


@<TRIPOS>ATOM
      1 C1          6.8150   -9.1990    0.1030 C.ar    1     ****   -0.1070 
      2 C2          6.7100   -7.8780    0.5470 C.ar    1     ****   -0.1350 
      3 C3          5.5760   -7.4440    1.2530 C.ar    1     ****   -0.0820 
      4 C4          4.5500   -8.3670    1.5060 C.ar    1     ****   -0.1430 
      5 C5          4.6660   -9.6810    1.0590 C.ar    1     ****    0.1240 
      6 C6          5.7890  -10.1050    0.3580 C.ar    1     ****   -0.1570 
      7 F1          3.6770  -10.5510    1.3080 F       1     ****   -0.1370 
      8 C7          5.4880   -6.0060    1.7240 C.3     1     ****    0.2620 
      9 C8          4.3200   -5.2690    1.0570 C.3     1     ****   -0.1810 
     10 C9          4.1980   -3.8660    1.6040 C.2     1     ****    0.5900 
     11 O1          3.8300   -2.9250    0.9100 O.2     1     ****   -0.5410 
     12 C10         4.4650   -3.6890    3.0520 C.ar    1     ****   -0.2520 
     13 C11         4.1500   -2.4700    3.6670 C.ar    1     ****   -0.0180 
     14 C12         4.3610   -2.3750    5.0260 C.ar    1     ****   -0.0080 
     15 C13         4.8540   -3.4290    5.7560 C.ar    1     ****    0.1290 
     16 C14         5.1760   -4.6370    5.1690 C.ar    1     ****   -0.2010 
     17 C15         5.0020   -4.7760    3.7830 C.ar    1     ****    0.2140 
     18 N1          5.3240   -5.9820    3.1660 N.pl3   1     ****   -0.7380 
     19 O2          4.9760   -3.1300    7.0790 O.3     1     ****   -0.3330 
     20 C16         4.5050   -1.7670    7.0970 C.3     1     ****    0.3210 
     21 O3          4.1100   -1.2820    5.7970 O.3     1     ****   -0.3290 
     22 H1          5.7810   -6.6950    3.7240 H       1     ****    0.4210 
     23 H2          7.6980   -9.5190   -0.4430 H       1     ****    0.1420 
     24 H3          7.5250   -7.1890    0.3360 H       1     ****    0.1400 
     25 H4          3.6590   -8.0720    2.0550 H       1     ****    0.1620 
     26 H5          5.8640  -11.1320    0.0160 H       1     ****    0.1520 
     27 H6          6.4080   -5.4670    1.4370 H       1     ****    0.0430 
     28 H7          4.4890   -5.2100   -0.0250 H       1     ****    0.0860 
     29 H8          3.3580   -5.7700    1.2200 H       1     ****    0.0880 
     30 H9          3.7420   -1.6330    3.1120 H       1     ****    0.1780 
     31 H10         5.5660   -5.4520    5.7700 H       1     ****    0.1600 
     32 H11         3.6430   -1.7030    7.7710 H       1     ****    0.0750 
     33 H12         5.3030   -1.1240    7.4830 H       1     ****    0.0740 
@<TRIPOS>BOND
     1  2 1 ar
     2  3 2 ar
     3  4 3 ar
     4  5 4 ar
     5  6 1 ar
     6  6 5 ar
     7  7 5 1
     8  8 3 1
     9  9 8 1
    10 10 9 1
    11 11 10 2
    12 12 10 1
    13 13 12 ar
    14 14 13 ar
    15 15 14 ar
    16 16 15 ar
    17 17 12 ar
    18 17 16 ar
    19 18 8 1
    20 18 17 1
    21 19 15 1
    22 20 19 1
    23 21 14 1
    24 21 20 1
    25 22 18 1
    26 23 1 1
    27 24 2 1
    28 25 4 1
    29 26 6 1
    30 27 8 1
    31 28 9 1
    32 29 9 1
    33 30 13 1
    34 31 16 1
    35 32 20 1
    36 33 20 1
@<TRIPOS>SUBSTRUCTURE
1     ****    1
@<TRIPOS>MOLECULE
ZINC00023575
32 35 1 0 0 
SMALL
USER_CHARGES


@<TRIPOS>ATOM
      1 C1          4.4220   -9.4670   -0.8930 C.ar    1     ****   -0.1200 
      2 C2          3.2090   -9.2890   -0.2270 C.ar    1     ****   -0.1290 
      3 C3          3.0050   -8.1650    0.5740 C.ar    1     ****   -0.1190 
      4 C4          4.0320   -7.2140    0.7200 C.ar    1     ****   -0.0130 
      5 C5          5.2640   -7.3900    0.0380 C.ar    1     ****   -0.0520 
      6 C6          5.4400   -8.5200   -0.7700 C.ar    1     ****   -0.1290 
      7 C7          6.3330   -6.3160    0.0720 C.3     1     ****   -0.0360 
      8 C8          6.3110   -5.4800    1.3580 C.3     1     ****    0.0030 
      9 C9          4.9150   -5.2250    1.8120 C.2     1     ****   -0.2150 
     10 C10         3.8590   -6.0770    1.5320 C.2     1     ****   -0.0650 
     11 N1          2.8000   -5.5650    2.2230 N.pl3   1     ****    0.0090 
     12 N2          3.0710   -4.4360    2.8940 N.2     1     ****   -0.4950 
     13 C11         4.3720   -4.2080    2.6520 C.2     1     ****    0.3510 
     14 C12         5.0440   -3.0590    3.2440 C.ar    1     ****   -0.0700 
     15 C13         5.8120   -2.1970    2.4580 C.ar    1     ****   -0.2340 
     16 C14         6.4220   -1.1160    3.0770 C.ar    1     ****    0.3880 
     17 N3          6.3200   -0.8390    4.3950 N.ar    1     ****   -0.6640 
     18 C15         5.5640   -1.6850    5.1280 C.ar    1     ****    0.3890 
     19 C16         4.9110   -2.7930    4.6090 C.ar    1     ****   -0.2220 
     20 H1          1.8580   -5.9300    2.2720 H       1     ****    0.3260 
     21 H2          4.5700  -10.3420   -1.5210 H       1     ****    0.1350 
     22 H3          2.4200  -10.0280   -0.3350 H       1     ****    0.1350 
     23 H4          2.0520   -8.0510    1.0830 H       1     ****    0.1270 
     24 H5          6.3680   -8.6640   -1.3190 H       1     ****    0.1350 
     25 H6          7.3280   -6.7600   -0.0470 H       1     ****    0.0540 
     26 H7          6.1620   -5.6580   -0.7900 H       1     ****    0.0570 
     27 H8          6.8300   -6.0300    2.1550 H       1     ****    0.0570 
     28 H9          6.8670   -4.5530    1.1960 H       1     ****    0.0560 
     29 H10         5.9280   -2.3440    1.3900 H       1     ****    0.1460 
     30 H11         7.0270   -0.4190    2.5050 H       1     ****    0.0210 
     31 H12         5.4920   -1.4430    6.1830 H       1     ****    0.0220 
     32 H13         4.3210   -3.4300    5.2600 H       1     ****    0.1540 
@<TRIPOS>BOND
     1  2 1 ar
     2  3 2 ar
     3  4 3 ar
     4  5 4 ar
     5  6 1 ar
     6  6 5 ar
     7  7 5 1
     8  8 7 1
     9  9 8 1
    10 10 4 1
    11 10 9 ar
    12 11 10 1
    13 12 11 1
    14 13 9 1
    15 13 12 2
    16 14 13 1
    17 15 14 ar
    18 16 15 ar
    19 17 16 ar
    20 18 17 ar
    21 19 14 ar
    22 19 18 ar
    23 20 11 1
    24 21 1 1
    25 22 2 1
    26 23 3 1
    27 24 6 1
    28 25 7 1
    29 26 7 1
    30 27 8 1
    31 28 8 1
    32 29 15 1
    33 30 16 1
    34 31 18 1
    35 32 19 1
@<TRIPOS>SUBSTRUCTURE
1     ****    1
@<TRIPOS>MOLECULE
ZINC00023576
30 33 1 0 0 
SMALL
USER_CHARGES


@<TRIPOS>ATOM
      1 C1          4.3740   -9.3910   -0.9940 C.ar    1     ****   -0.1220 
      2 C2          3.1630   -9.2110   -0.3270 C.ar    1     ****   -0.1250 
      3 C3          2.9930   -8.1300    0.5350 C.ar    1     ****   -0.1180 
      4 C4          4.0500   -7.2190    0.7300 C.ar    1     ****   -0.0260 
      5 C5          5.2840   -7.3920    0.0580 C.ar    1     ****   -0.0130 
      6 C6          5.4260   -8.4900   -0.8040 C.ar    1     ****   -0.1180 
      7 C7          6.3270   -6.4800    0.2660 C.ar    1     ****   -0.1450 
      8 C8          6.1790   -5.3840    1.1280 C.ar    1     ****   -0.0640 
      9 C9          4.9560   -5.1890    1.7980 C.ar    1     ****   -0.2020 
     10 C10         3.9280   -6.1050    1.5940 C.ar    1     ****   -0.0540 
     11 N1          2.9030   -5.6620    2.3830 N.pl3   1     ****    0.0120 
     12 N2          3.1750   -4.5520    3.0800 N.2     1     ****   -0.5080 
     13 C11         4.4290   -4.2340    2.7250 C.2     1     ****    0.3820 
     14 C12         5.0790   -3.0480    3.2780 C.ar    1     ****   -0.0500 
     15 C13         5.8350   -2.2000    2.4660 C.ar    1     ****   -0.2350 
     16 C14         6.4240   -1.0860    3.0470 C.ar    1     ****    0.3890 
     17 N3          6.3120   -0.7640    4.3540 N.ar    1     ****   -0.6620 
     18 C15         5.5690   -1.5970    5.1140 C.ar    1     ****    0.3890 
     19 C16         4.9380   -2.7340    4.6320 C.ar    1     ****   -0.2210 
     20 H1          1.9880   -6.0780    2.4960 H       1     ****    0.3280 
     21 H2          4.5010  -10.2360   -1.6660 H       1     ****    0.1360 
     22 H3          2.3500   -9.9160   -0.4810 H       1     ****    0.1360 
     23 H4          2.0410   -8.0080    1.0450 H       1     ****    0.1260 
     24 H5          6.3590   -8.6570   -1.3380 H       1     ****    0.1370 
     25 H6          7.2800   -6.6110   -0.2440 H       1     ****    0.1360 
     26 H7          7.0130   -4.7020    1.2710 H       1     ****    0.1430 
     27 H8          5.9590   -2.3790    1.4030 H       1     ****    0.1480 
     28 H9          7.0180   -0.3990    2.4520 H       1     ****    0.0220 
     29 H10         5.4890   -1.3190    6.1600 H       1     ****    0.0230 
     30 H11         4.3590   -3.3570    5.3070 H       1     ****    0.1550 
@<TRIPOS>BOND
     1  2 1 ar
     2  3 2 ar
     3  4 3 ar
     4  5 4 ar
     5  6 1 ar
     6  6 5 ar
     7  7 5 ar
     8  8 7 ar
     9  9 8 ar
    10 10 4 ar
    11 10 9 ar
    12 11 10 1
    13 12 11 1
    14 13 9 1
    15 13 12 2
    16 14 13 1
    17 15 14 ar
    18 16 15 ar
    19 17 16 ar
    20 18 17 ar
    21 19 14 ar
    22 19 18 ar
    23 20 11 1
    24 21 1 1
    25 22 2 1
    26 23 3 1
    27 24 6 1
    28 25 7 1
    29 26 8 1
    30 27 15 1
    31 28 16 1
    32 29 18 1
    33 30 19 1
@<TRIPOS>SUBSTRUCTURE
1     ****    1
@<TRIPOS>MOLECULE
ZINC00023582
24 26 1 0 0 
SMALL
USER_CHARGES


@<TRIPOS>ATOM
      1 C1          4.2870   -7.1200    4.2680 C.ar    1     ****   -0.1560 
      2 C2          4.4030   -5.7470    4.4730 C.ar    1     ****   -0.1510 
      3 C3          4.1820   -4.8610    3.4180 C.ar    1     ****   -0.1110 
      4 C4          3.8400   -5.3490    2.1410 C.ar    1     ****    0.0140 
      5 C5          3.7210   -6.7460    1.9290 C.ar    1     ****   -0.0520 
      6 C6          3.9480   -7.6160    3.0070 C.ar    1     ****   -0.1230 
      7 C7          3.3800   -7.2320    0.6600 C.ar    1     ****   -0.1600 
      8 C8          3.1520   -6.3720   -0.4180 C.ar    1     ****   -0.0980 
      9 C9          3.2740   -4.9970   -0.1930 C.ar    1     ****   -0.1090 
     10 C10         3.6100   -4.4580    1.0510 C.ar    1     ****   -0.0930 
     11 C11         3.6370   -3.0390    0.8880 C.2     1     ****   -0.2010 
     12 C12         3.3230   -2.7570   -0.4230 C.2     1     ****   -0.0860 
     13 N1          3.1060   -3.9460   -1.0650 N.pl3   1     ****   -0.1400 
     14 C13         3.2280   -1.4220   -1.0560 C.2     1     ****    0.9290 
     15 O1          2.9210   -1.4090   -2.2870 O.co2   1     ****   -0.8360 
     16 H1          2.8580   -4.0330   -2.0420 H       1     ****    0.3080 
     17 H2          4.4600   -7.8070    5.0910 H       1     ****    0.1110 
     18 H3          4.6670   -5.3650    5.4550 H       1     ****    0.1140 
     19 H4          4.2790   -3.7940    3.6040 H       1     ****    0.1360 
     20 H5          3.8640   -8.6930    2.8750 H       1     ****    0.1130 
     21 H6          3.2870   -8.3040    0.4910 H       1     ****    0.1120 
     22 H7          2.8900   -6.7630   -1.3950 H       1     ****    0.1170 
     23 H8          3.8620   -2.3050    1.6510 H       1     ****    0.1580 
     24 O2          3.4600   -0.4180   -0.3180 O.co2   1     ****   -0.7960 
@<TRIPOS>BOND
     1  2 1 ar
     2  3 2 ar
     3  4 3 ar
     4  5 4 ar
     5  6 1 ar
     6  6 5 ar
     7  7 5 ar
     8  8 7 ar
     9  9 8 ar
    10 10 4 ar
    11 10 9 ar
    12 11 10 1
    13 12 11 2
    14 13 9 1
    15 13 12 1
    16 14 12 1
    17 15 14 1
    18 16 13 1
    19 17 1 1
    20 18 2 1
    21 19 3 1
    22 20 6 1
    23 21 7 1
    24 22 8 1
    25 23 11 1
    26 24 14 2
@<TRIPOS>SUBSTRUCTURE
1     ****    1
@<TRIPOS>MOLECULE
ZINC00023894
33 36 1 0 0 
SMALL
USER_CHARGES


@<TRIPOS>ATOM
      1 C1         -0.7200    4.9870   -0.5550 C.ar    1     ****   -0.1500 
      2 C2         -0.6810    3.6270   -0.2840 C.ar    1     ****   -0.0900 
      3 C3         -1.8530    2.9590    0.0680 C.ar    1     ****   -0.1740 
      4 C4         -3.0870    3.6340    0.1410 C.ar    1     ****    0.0990 
      5 C5         -3.1200    5.0260   -0.0890 C.ar    1     ****   -0.0820 
      6 C6         -1.9260    5.6800   -0.4530 C.ar    1     ****   -0.0970 
      7 C7         -4.3330    5.8220    0.1010 C.2     1     ****    0.0210 
      8 C8         -5.6500    5.4390   -0.0660 C.2     1     ****   -0.1180 
      9 C9         -6.4830    6.5500    0.2700 C.ar    1     ****   -0.1000 
     10 C10        -7.8770    6.7660    0.2940 C.ar    1     ****   -0.0080 
     11 C11        -8.3530    8.0250    0.6950 C.ar    1     ****   -0.2060 
     12 C12        -7.4870    9.0550    1.0660 C.ar    1     ****   -0.0570 
     13 C13        -6.1050    8.8510    1.0450 C.ar    1     ****   -0.1540 
     14 C14        -5.6360    7.5940    0.6440 C.ar    1     ****   -0.0040 
     15 N1         -4.3470    7.1270    0.5340 N.pl3   1     ****   -0.1750 
     16 N2         -9.7920    8.2600    0.7230 N.2     1     ****    0.3170 
     17 O1        -10.5030    7.5640   -0.0150 O.2     1     ****   -0.2140 
     18 O2        -10.2150    9.1410    1.4840 O.3     1     ****   -0.2140 
     19 C15        -6.0540    4.0980   -0.5360 C.3     1     ****   -0.0700 
     20 C16        -5.5450    3.0120    0.3790 C.2     1     ****    0.7050 
     21 O3         -6.3420    2.2390    0.9190 O.2     1     ****   -0.6200 
     22 N3         -4.1890    2.8230    0.5130 N.am    1     ****   -0.4750 
     23 H1         -3.5270    7.6710    0.7610 H       1     ****    0.3090 
     24 H2         -3.9430    1.9350    0.9440 H       1     ****    0.3270 
     25 H3          0.1880    5.5130   -0.8350 H       1     ****    0.1420 
     26 H4          0.2560    3.0830   -0.3500 H       1     ****    0.1410 
     27 H5         -1.7960    1.8900    0.2680 H       1     ****    0.1430 
     28 H6         -1.9160    6.7490   -0.6590 H       1     ****    0.1340 
     29 H7         -8.5520    5.9630    0.0120 H       1     ****    0.1740 
     30 H8         -7.8600   10.0310    1.3710 H       1     ****    0.1700 
     31 H9         -5.4210    9.6430    1.3300 H       1     ****    0.1490 
     32 H10        -7.1450    4.0160   -0.5930 H       1     ****    0.0950 
     33 H11        -5.6690    3.9130   -1.5470 H       1     ****    0.0820 
@<TRIPOS>BOND
     1  2 1 ar
     2  3 2 ar
     3  4 3 ar
     4  5 4 ar
     5  6 1 ar
     6  6 5 ar
     7  7 5 1
     8  8 7 2
     9  9 8 1
    10 10 9 ar
    11 11 10 ar
    12 12 11 ar
    13 13 12 ar
    14 14 9 ar
    15 14 13 ar
    16 15 7 1
    17 15 14 1
    18 16 11 1
    19 17 16 2
    20 18 16 1
    21 19 8 1
    22 20 19 1
    23 21 20 2
    24 22 4 1
    25 22 20 1
    26 23 15 1
    27 24 22 1
    28 25 1 1
    29 26 2 1
    30 27 3 1
    31 28 6 1
    32 29 10 1
    33 30 12 1
    34 31 13 1
    35 32 19 1
    36 33 19 1
@<TRIPOS>SUBSTRUCTURE
1     ****    1
@<TRIPOS>MOLECULE
ZINC00025786
32 35 1 0 0 
SMALL
USER_CHARGES


@<TRIPOS>ATOM
      1 C1          3.0270    9.5150   11.4080 C.ar    1     ****   -0.0290 
      2 C2          2.5790    8.4070   10.6870 C.ar    1     ****   -0.1580 
      3 C3          2.1450    8.5570    9.3690 C.ar    1     ****    0.1730 
      4 C4          2.1560    9.8090    8.7670 C.ar    1     ****   -0.2180 
      5 C5          2.6010   10.9330    9.4720 C.ar    1     ****    0.0120 
      6 C6          3.0340   10.7710   10.7920 C.ar    1     ****   -0.2090 
      7 N1          3.5000   11.9320   11.5420 N.2     1     ****    0.3170 
      8 O1          4.2540   11.7310   12.5030 O.2     1     ****   -0.2100 
      9 O2          3.1140   13.0490   11.1710 O.3     1     ****   -0.1950 
     10 C7          1.6950    9.9250    7.3780 C.2     1     ****    0.6160 
     11 O3          1.6990   11.0090    6.8100 O.2     1     ****   -0.5020 
     12 C8          1.2370    8.6730    6.7210 C.2     1     ****   -0.4030 
     13 C9          1.2700    7.5160    7.4070 C.2     1     ****    0.4220 
     14 O4          1.7200    7.4290    8.7220 O.3     1     ****   -0.1830 
     15 N2          0.8690    6.3170    6.8790 N.2     1     ****   -0.6480 
     16 C10         0.4600    6.2770    5.6520 C.2     1     ****    0.5280 
     17 N3          0.3950    7.3860    4.8210 N.am    1     ****   -0.3870 
     18 C11         0.7260    8.6500    5.3210 C.2     1     ****    0.7290 
     19 O5          0.6040    9.6980    4.6900 O.2     1     ****   -0.5730 
     20 C12        -0.1270    7.3640    3.4520 C.3     1     ****    0.0630 
     21 C13        -0.0060    6.0350    2.7360 C.3     1     ****   -0.0970 
     22 C14        -0.7690    4.9770    3.4950 C.3     1     ****   -0.0800 
     23 S1          0.0120    4.6790    5.0820 S.3     1     ****   -0.0390 
     24 H1          3.3550    9.3770   12.4340 H       1     ****    0.1790 
     25 H2          2.5700    7.4280   11.1600 H       1     ****    0.1730 
     26 H3          2.6130   11.9080    8.9920 H       1     ****    0.1990 
     27 H4         -1.1780    7.6750    3.5090 H       1     ****    0.0690 
     28 H5          0.3920    8.1280    2.8600 H       1     ****    0.1060 
     29 H6         -0.4290    6.1330    1.7290 H       1     ****    0.0800 
     30 H7          1.0470    5.7540    2.6120 H       1     ****    0.0740 
     31 H8         -1.8110    5.2750    3.6520 H       1     ****    0.0860 
     32 H9         -0.7770    4.0390    2.9300 H       1     ****    0.1030 
@<TRIPOS>BOND
     1  2 1 ar
     2  3 2 ar
     3  4 3 ar
     4  5 4 ar
     5  6 1 ar
     6  6 5 ar
     7  7 6 1
     8  8 7 2
     9  9 7 1
    10 10 4 1
    11 11 10 2
    12 12 10 1
    13 13 12 2
    14 14 3 1
    15 14 13 1
    16 15 13 1
    17 16 15 2
    18 17 16 1
    19 18 12 1
    20 18 17 1
    21 19 18 2
    22 20 17 1
    23 21 20 1
    24 22 21 1
    25 23 16 1
    26 23 22 1
    27 24 1 1
    28 25 2 1
    29 26 5 1
    30 27 20 1
    31 28 20 1
    32 29 21 1
    33 30 21 1
    34 31 22 1
    35 32 22 1
@<TRIPOS>SUBSTRUCTURE
1     ****    1
@<TRIPOS>MOLECULE
ZINC00027320
18 19 1 0 0 
SMALL
USER_CHARGES


@<TRIPOS>ATOM
      1 C1          2.6370    0.5080    4.9510 C.ar    1     ****   -0.1210 
      2 C2          1.9070   -0.1680    5.9250 C.ar    1     ****   -0.1320 
      3 C3          2.3270   -1.4230    6.3750 C.ar    1     ****   -0.1140 
      4 C4          3.4870   -2.0180    5.8560 C.ar    1     ****   -0.1150 
      5 C5          4.2130   -1.3240    4.8750 C.ar    1     ****   -0.1020 
      6 C6          3.7900   -0.0700    4.4260 C.ar    1     ****   -0.1340 
      7 C7          3.9300   -3.3310    6.3240 C.2     1     ****    0.2660 
      8 C8          3.3490   -4.1870    7.2940 C.2     1     ****    0.2080 
      9 N1          4.0670   -5.3040    7.4320 N.2     1     ****   -0.4940 
     10 N2          5.0460   -5.0830    6.5480 N.pl3   1     ****    0.1400 
     11 N3          5.0350   -3.9380    5.8530 N.2     1     ****   -0.4900 
     12 H1          5.7820   -5.7670    6.4070 H       1     ****    0.3500 
     13 H2          2.3090    1.4830    4.6030 H       1     ****    0.1330 
     14 H3          1.0070    0.2810    6.3360 H       1     ****    0.1340 
     15 H4          1.7290   -1.9170    7.1360 H       1     ****    0.1310 
     16 H5          5.1180   -1.7450    4.4420 H       1     ****    0.1480 
     17 H6          4.3620    0.4550    3.6670 H       1     ****    0.1340 
     18 H7          2.4590   -4.0560    7.8930 H       1     ****    0.0570 
@<TRIPOS>BOND
     1  2 1 ar
     2  3 2 ar
     3  4 3 ar
     4  5 4 ar
     5  6 1 ar
     6  6 5 ar
     7  7 4 1
     8  8 7 1
     9  9 8 2
    10 10 9 1
    11 11 7 2
    12 11 10 1
    13 12 10 1
    14 13 1 1
    15 14 2 1
    16 15 3 1
    17 16 5 1
    18 17 6 1
    19 18 8 1
@<TRIPOS>SUBSTRUCTURE
1     ****    1
@<TRIPOS>MOLECULE
ZINC00000024
39 43 1 0 0 
SMALL
USER_CHARGES


@<TRIPOS>ATOM
      1 C1          4.2980    4.1460   -1.1040 C.ar    1     ****   -0.1020 
      2 C2          4.0140    4.7020    0.1560 C.ar    1     ****   -0.1540 
      3 C3          2.6660    4.9540    0.5520 C.ar    1     ****   -0.0780 
      4 C4          1.6240    4.6080   -0.3290 C.ar    1     ****   -0.0860 
      5 C5          1.9430    4.0730   -1.5610 C.ar    1     ****    0.0900 
      6 C6          3.2440    3.8530   -1.9390 C.ar    1     ****    0.0840 
      7 O1          3.3380    3.3120   -3.1840 O.3     1     ****   -0.3170 
      8 C7          1.9460    3.2210   -3.5490 C.3     1     ****    0.3190 
      9 O2          1.0540    3.6960   -2.5200 O.3     1     ****   -0.3130 
     10 C8          2.3290    5.5210    1.9470 C.3     1     ****   -0.0270 
     11 C9          1.6780    6.9330    1.8770 C.3     1     ****    0.1630 
     12 C10         1.3580    7.4660    3.3000 C.3     1     ****    0.1160 
     13 C11         2.5470    7.3990    4.2190 C.2     1     ****   -0.0900 
     14 C12         3.5480    6.5490    3.9770 C.2     1     ****   -0.1980 
     15 C13         3.5760    5.5730    2.8520 C.3     1     ****    0.1780 
     16 C14         5.1580    4.9570    1.1020 C.3     1     ****    0.1820 
     17 C15         5.8090    6.2590    3.2250 C.3     1     ****    0.1210 
     18 C16         4.9660    6.6690    4.4600 C.3     1     ****   -0.0520 
     19 O3          0.9570    8.8200    3.1670 O.3     1     ****   -0.5880 
     20 O4          0.4460    6.8600    1.1740 O.3     1     ****   -0.5910 
     21 H1          0.6460    9.1240    4.0370 H       1     ****    0.4290 
     22 H2          0.0600    7.7540    1.1780 H       1     ****    0.4440 
     23 H3          5.3190    3.9420   -1.4120 H       1     ****    0.1680 
     24 H4          0.5820    4.7350   -0.0540 H       1     ****    0.1970 
     25 H5          1.7810    3.8130   -4.4570 H       1     ****    0.0960 
     26 H6          1.7070    2.1730   -3.7640 H       1     ****    0.0950 
     27 H7          1.6100    4.7910    2.3630 H       1     ****    0.1140 
     28 H8          2.3710    7.6140    1.3540 H       1     ****    0.0560 
     29 H9          0.5490    6.8680    3.7500 H       1     ****    0.0830 
     30 H10         2.6440    8.1480    4.9990 H       1     ****    0.1690 
     31 H11         3.6730    4.5620    3.2890 H       1     ****    0.1140 
     32 H12         5.4380    4.0310    1.6170 H       1     ****    0.1050 
     33 H13         6.0260    5.3620    0.5700 H       1     ****    0.1050 
     34 H14         6.3800    5.3440    3.4150 H       1     ****    0.1050 
     35 H15         6.4630    7.0580    2.8650 H       1     ****    0.1070 
     36 H16         5.2160    7.6850    4.7790 H       1     ****    0.0960 
     37 H17         5.1560    5.9830    5.2920 H       1     ****    0.1000 
     38 N1          4.7860    5.9670    2.1290 N.4     1     ****   -0.6960 
     39 H18         4.6720    6.8590    1.6190 H       1     ****    0.4530 
@<TRIPOS>BOND
     1  2 1 ar
     2  3 2 ar
     3  4 3 ar
     4  5 4 ar
     5  6 1 ar
     6  6 5 ar
     7  7 6 1
     8  8 7 1
     9  9 5 1
    10  9 8 1
    11 10 3 1
    12 11 10 1
    13 12 11 1
    14 13 12 1
    15 14 13 2
    16 15 10 1
    17 15 14 1
    18 16 2 1
    19 18 14 1
    20 18 17 1
    21 19 12 1
    22 20 11 1
    23 21 19 1
    24 22 20 1
    25 23 1 1
    26 24 4 1
    27 25 8 1
    28 26 8 1
    29 27 10 1
    30 28 11 1
    31 29 12 1
    32 30 13 1
    33 31 15 1
    34 32 16 1
    35 33 16 1
    36 34 17 1
    37 35 17 1
    38 36 18 1
    39 37 18 1
    40 38 15 1
    41 38 16 1
    42 38 17 1
    43 39 38 1
@<TRIPOS>SUBSTRUCTURE
1     ****    1
@<TRIPOS>MOLECULE
ZINC00000032
22 23 1 0 0 
SMALL
USER_CHARGES


@<TRIPOS>ATOM
      1 C1          2.6090    1.0620    3.6350 C.ar    1     ****   -0.1230 
      2 C2          2.6600    0.3770    2.4230 C.ar    1     ****   -0.1310 
      3 C3          2.8790   -1.0020    2.4060 C.ar    1     ****   -0.1010 
      4 C4          3.0530   -1.7130    3.6030 C.ar    1     ****   -0.1020 
      5 C5          2.9900   -1.0120    4.8170 C.ar    1     ****   -0.1200 
      6 C6          2.7720    0.3670    4.8320 C.ar    1     ****   -0.1320 
      7 C7          3.2710   -3.2130    3.6080 C.3     1     ****    0.1570 
      8 C8          1.9760   -3.9850    3.4270 C.3     1     ****    0.0920 
      9 N1          2.3150   -5.0420    2.4660 N.2     1     ****   -0.6830 
     10 C9          3.4860   -4.7140    2.0190 C.2     1     ****    0.7400 
     11 O1          4.0960   -3.6080    2.5320 O.3     1     ****   -0.4620 
     12 N2          4.2230   -5.3480    1.0700 N.pl3   1     ****   -0.8680 
     13 H1          3.8770   -6.1840    0.6140 H       1     ****    0.4220 
     14 H2          5.1340   -5.0000    0.7970 H       1     ****    0.4180 
     15 H3          2.4380    2.1340    3.6480 H       1     ****    0.1320 
     16 H4          2.5290    0.9170    1.4890 H       1     ****    0.1340 
     17 H5          2.9080   -1.5170    1.4490 H       1     ****    0.1460 
     18 H6          3.1100   -1.5360    5.7630 H       1     ****    0.1300 
     19 H7          2.7280    0.8990    5.7780 H       1     ****    0.1320 
     20 H8          3.7390   -3.4760    4.5710 H       1     ****    0.0770 
     21 H9          1.6380   -4.4170    4.3740 H       1     ****    0.0650 
     22 H10         1.1570   -3.3790    3.0240 H       1     ****    0.0770 
@<TRIPOS>BOND
     1  2 1 ar
     2  3 2 ar
     3  4 3 ar
     4  5 4 ar
     5  6 1 ar
     6  6 5 ar
     7  7 4 1
     8  8 7 1
     9  9 8 1
    10 10 9 2
    11 11 7 1
    12 11 10 1
    13 12 10 1
    14 13 12 1
    15 14 12 1
    16 15 1 1
    17 16 2 1
    18 17 3 1
    19 18 5 1
    20 19 6 1
    21 20 7 1
    22 21 8 1
    23 22 8 1
@<TRIPOS>SUBSTRUCTURE
1     ****    1
@<TRIPOS>MOLECULE
ZINC00000133
29 30 1 0 0 
SMALL
USER_CHARGES


@<TRIPOS>ATOM
      1 C1          1.5150    6.7630   11.5230 C.3     1     ****    0.0600 
      2 N1          1.7490    8.0670   10.9030 N.am    1     ****   -0.4160 
      3 C2          0.7590    8.4650    9.8720 C.3     1     ****   -0.0090 
      4 S1          0.7490   10.2120    9.5150 S.o2    1     ****    1.2950 
      5 O1          0.1710   10.8920   10.6590 O.3     1     ****   -0.6280 
      6 O2          0.2220   10.4500    8.1850 O.3     1     ****   -0.6280 
      7 C3          2.4770   10.5790    9.4840 C.3     1     ****   -0.3300 
      8 C4          3.1140   10.1650   10.7840 C.3     1     ****   -0.1260 
      9 C5          2.9580    8.7080   11.1760 C.2     1     ****    0.6710 
     10 O3          3.8700    8.1800   11.8220 O.2     1     ****   -0.6090 
     11 C6          0.9360    7.6970    8.5600 C.ar    1     ****   -0.1210 
     12 C7          2.1960    7.3640    8.0370 C.ar    1     ****   -0.1120 
     13 C8          2.3110    6.6670    6.8320 C.ar    1     ****   -0.1220 
     14 C9          1.1640    6.2960    6.1340 C.ar    1     ****    0.0300 
     15 C10        -0.0960    6.6150    6.6310 C.ar    1     ****   -0.1180 
     16 C11        -0.2070    7.3110    7.8370 C.ar    1     ****   -0.0870 
     17 CL1         1.3060    5.4380    4.6480 Cl      1     ****   -0.0820 
     18 H1          0.4850    6.7180   11.8880 H       1     ****    0.0470 
     19 H2          1.6790    5.9770   10.7810 H       1     ****    0.0350 
     20 H3          2.1880    6.5930   12.3680 H       1     ****    0.0820 
     21 H4         -0.2260    8.1540   10.2680 H       1     ****    0.1170 
     22 H5          2.9230   10.0670    8.6280 H       1     ****    0.1290 
     23 H6          2.5780   11.6570    9.3270 H       1     ****    0.1320 
     24 H7          4.1880   10.3820   10.7300 H       1     ****    0.0960 
     25 H8          2.7090   10.7590   11.6130 H       1     ****    0.1010 
     26 H9          3.1090    7.6360    8.5600 H       1     ****    0.1410 
     27 H10         3.2990    6.4210    6.4510 H       1     ****    0.1530 
     28 H11        -0.9970    6.3320    6.0940 H       1     ****    0.1550 
     29 H12        -1.2000    7.5570    8.2080 H       1     ****    0.1440 
@<TRIPOS>BOND
     1  2 1 1
     2  3 2 1
     3  4 3 1
     4  5 4 1
     5  6 4 1
     6  7 4 1
     7  8 7 1
     8  9 2 1
     9  9 8 1
    10 10 9 2
    11 11 3 1
    12 12 11 ar
    13 13 12 ar
    14 14 13 ar
    15 15 14 ar
    16 16 11 ar
    17 16 15 ar
    18 17 14 1
    19 18 1 1
    20 19 1 1
    21 20 1 1
    22 21 3 1
    23 22 7 1
    24 23 7 1
    25 24 8 1
    26 25 8 1
    27 26 12 1
    28 27 13 1
    29 28 15 1
    30 29 16 1
@<TRIPOS>SUBSTRUCTURE
1     ****    1
@<TRIPOS>MOLECULE
ZINC00000138
24 25 1 0 0 
SMALL
USER_CHARGES


@<TRIPOS>ATOM
      1 C1          3.7260   -8.1520   -1.3820 C.ar    1     ****   -0.1700 
      2 C2          3.1850   -7.3420   -2.3820 C.ar    1     ****   -0.0760 
      3 C3          2.5470   -6.1460   -2.0490 C.ar    1     ****   -0.1620 
      4 C4          2.4670   -5.7550   -0.7140 C.ar    1     ****    0.1500 
      5 C5          2.9950   -6.5730    0.2870 C.ar    1     ****   -0.2100 
      6 C6          3.6270   -7.7740   -0.0420 C.ar    1     ****   -0.0400 
      7 C7          2.8110   -6.1730    1.6940 C.2     1     ****    0.7240 
      8 O1          3.0570   -6.9380    2.6180 O.2     1     ****   -0.6190 
      9 N1          2.3190   -4.8970    1.8560 N.am    1     ****   -0.6050 
     10 C8          2.3020   -3.9530    0.7540 C.3     1     ****    0.3100 
     11 O2          1.8130   -4.5850   -0.4320 O.3     1     ****   -0.3390 
     12 C9          1.3920   -2.7510    1.0480 C.3     1     ****   -0.1080 
     13 C10         1.9370   -1.8520    2.1510 C.3     1     ****    0.0310 
     14 CL1         0.8650   -0.4510    2.3920 Cl      1     ****   -0.1780 
     15 H1          2.1830   -4.5700    2.8060 H       1     ****    0.3290 
     16 H2          4.2170   -9.0840   -1.6460 H       1     ****    0.1420 
     17 H3          3.2560   -7.6470   -3.4230 H       1     ****    0.1390 
     18 H4          2.1230   -5.5240   -2.8330 H       1     ****    0.1540 
     19 H5          4.0370   -8.4230    0.7280 H       1     ****    0.1600 
     20 H6          3.3300   -3.5830    0.6040 H       1     ****    0.0600 
     21 H7          1.2720   -2.1680    0.1250 H       1     ****    0.0890 
     22 H8          0.3880   -3.1070    1.3120 H       1     ****    0.0790 
     23 H9          2.0050   -2.3760    3.1070 H       1     ****    0.0670 
     24 H10         2.9290   -1.4680    1.8920 H       1     ****    0.0720 
@<TRIPOS>BOND
     1  2 1 ar
     2  3 2 ar
     3  4 3 ar
     4  5 4 ar
     5  6 1 ar
     6  6 5 ar
     7  7 5 1
     8  8 7 2
     9  9 7 1
    10 10 9 1
    11 11 4 1
    12 11 10 1
    13 12 10 1
    14 13 12 1
    15 14 13 1
    16 15 9 1
    17 16 1 1
    18 17 2 1
    19 18 3 1
    20 19 6 1
    21 20 10 1
    22 21 12 1
    23 22 12 1
    24 23 13 1
    25 24 13 1
@<TRIPOS>SUBSTRUCTURE
1     ****    1
@<TRIPOS>MOLECULE
ZINC00000212
29 30 1 0 0 
SMALL
USER_CHARGES


@<TRIPOS>ATOM
      1 C1          2.7300   -1.2280   -0.3550 C.3     1     ****    0.0630 
      2 N1          3.8520   -0.3690    0.0160 N.am    1     ****   -0.4280 
      3 C2          3.9220    0.2340    1.3680 C.3     1     ****    0.0100 
      4 S1          4.5680    1.9100    1.3430 S.o2    1     ****    1.2670 
      5 O1          5.2830    2.1180    2.5880 O.3     1     ****   -0.6330 
      6 O2          3.5440    2.8410    0.9080 O.3     1     ****   -0.6240 
      7 C3          5.7790    1.8430    0.0390 C.3     1     ****   -0.3210 
      8 C4          6.1690    0.4170   -0.2800 C.3     1     ****   -0.1170 
      9 C5          4.9810   -0.3580   -0.8170 C.2     1     ****    0.6710 
     10 O3          5.0610   -0.9370   -1.9000 O.2     1     ****   -0.6000 
     11 C6          2.6280    0.2490    2.1830 C.ar    1     ****   -0.1100 
     12 C7          2.6170   -0.3410    3.4580 C.ar    1     ****   -0.0890 
     13 C8          1.4610   -0.3370    4.2430 C.ar    1     ****   -0.1230 
     14 C9          0.2930    0.2630    3.7700 C.ar    1     ****    0.0350 
     15 C10         0.2860    0.8620    2.5080 C.ar    1     ****    0.0130 
     16 C11         1.4470    0.8550    1.7250 C.ar    1     ****   -0.0860 
     17 CL1        -1.1220    1.6250    1.8590 Cl      1     ****   -0.0540 
     18 CL2        -1.1020    0.2340    4.7880 Cl      1     ****   -0.0570 
     19 H1          1.8370   -0.6200   -0.5050 H       1     ****    0.0530 
     20 H2          2.9270   -1.7650   -1.2870 H       1     ****    0.0830 
     21 H3          2.5660   -1.9670    0.4350 H       1     ****    0.0330 
     22 H4          4.5980   -0.4530    1.9100 H       1     ****    0.0890 
     23 H5          5.3370    2.3250   -0.8400 H       1     ****    0.1360 
     24 H6          6.6460    2.4280    0.3600 H       1     ****    0.1320 
     25 H7          6.9540    0.4170   -1.0450 H       1     ****    0.0980 
     26 H8          6.5680   -0.1020    0.5990 H       1     ****    0.0750 
     27 H9          3.5130   -0.8110    3.8570 H       1     ****    0.1460 
     28 H10         1.4880   -0.8050    5.2240 H       1     ****    0.1580 
     29 H11         1.4290    1.3290    0.7450 H       1     ****    0.1810 
@<TRIPOS>BOND
     1  2 1 1
     2  3 2 1
     3  4 3 1
     4  5 4 1
     5  6 4 1
     6  7 4 1
     7  8 7 1
     8  9 2 1
     9  9 8 1
    10 10 9 2
    11 11 3 1
    12 12 11 ar
    13 13 12 ar
    14 14 13 ar
    15 15 14 ar
    16 16 11 ar
    17 16 15 ar
    18 17 15 1
    19 18 14 1
    20 19 1 1
    21 20 1 1
    22 21 1 1
    23 22 3 1
    24 23 7 1
    25 24 7 1
    26 25 8 1
    27 26 8 1
    28 27 12 1
    29 28 13 1
    30 29 16 1
@<TRIPOS>SUBSTRUCTURE
1     ****    1
@<TRIPOS>MOLECULE
ZINC00000298
27 28 1 0 0 
SMALL
USER_CHARGES


@<TRIPOS>ATOM
      1 C1          4.0260   -4.9180   -1.4990 C.3     1     ****   -0.1120 
      2 C2          2.9190   -5.8750   -1.0420 C.3     1     ****    0.0850 
      3 C3          2.5840   -5.6920    0.4540 C.3     1     ****    0.1760 
      4 O1          1.6310   -6.6860    0.8160 O.3     1     ****   -0.4010 
      5 C4          2.1930   -7.9810    0.7540 C.3     1     ****    0.0590 
      6 C5          2.9100   -8.3220   -0.5420 C.2     1     ****    0.6690 
      7 O2          3.1430   -9.4860   -0.8620 O.2     1     ****   -0.6440 
      8 N1          3.3400   -7.2450   -1.2840 N.am    1     ****   -0.5740 
      9 C6          1.9900   -4.3280    0.7620 C.ar    1     ****   -0.0910 
     10 C7          0.7260   -3.9590    0.2750 C.ar    1     ****   -0.0990 
     11 C8          0.1930   -2.7010    0.5610 C.ar    1     ****   -0.1330 
     12 C9          0.9140   -1.7970    1.3380 C.ar    1     ****   -0.1200 
     13 C10         2.1680   -2.1510    1.8300 C.ar    1     ****   -0.1330 
     14 C11         2.7040   -3.4090    1.5460 C.ar    1     ****   -0.1160 
     15 H1          3.8200   -7.4550   -2.1540 H       1     ****    0.3250 
     16 H2          3.7210   -3.8720   -1.4020 H       1     ****    0.0590 
     17 H3          4.9420   -5.0650   -0.9150 H       1     ****    0.0460 
     18 H4          4.2760   -5.0930   -2.5510 H       1     ****    0.0440 
     19 H5          2.0300   -5.6570   -1.6560 H       1     ****    0.0560 
     20 H6          3.5060   -5.7960    1.0530 H       1     ****    0.0550 
     21 H7          2.9000   -8.1090    1.5810 H       1     ****    0.0640 
     22 H8          1.3790   -8.7010    0.8910 H       1     ****    0.1040 
     23 H9          0.1460   -4.6520   -0.3300 H       1     ****    0.1440 
     24 H10        -0.7860   -2.4280    0.1780 H       1     ****    0.1350 
     25 H11         0.4980   -0.8190    1.5600 H       1     ****    0.1340 
     26 H12         2.7310   -1.4470    2.4370 H       1     ****    0.1340 
     27 H13         3.6850   -3.6630    1.9390 H       1     ****    0.1330 
@<TRIPOS>BOND
     1  2 1 1
     2  3 2 1
     3  4 3 1
     4  5 4 1
     5  6 5 1
     6  7 6 2
     7  8 2 1
     8  8 6 1
     9  9 3 1
    10 10 9 ar
    11 11 10 ar
    12 12 11 ar
    13 13 12 ar
    14 14 9 ar
    15 14 13 ar
    16 15 8 1
    17 16 1 1
    18 17 1 1
    19 18 1 1
    20 19 2 1
    21 20 3 1
    22 21 5 1
    23 22 5 1
    24 23 10 1
    25 24 11 1
    26 25 12 1
    27 26 13 1
    28 27 14 1
@<TRIPOS>SUBSTRUCTURE
1     ****    1
@<TRIPOS>MOLECULE
ZINC00000575
31 33 1 0 0 
SMALL
USER_CHARGES


@<TRIPOS>ATOM
      1 C1          4.6990   -8.8350    1.9370 C.ar    1     ****   -0.1120 
      2 C2          5.0730   -8.2600    0.7220 C.ar    1     ****   -0.1390 
      3 C3          5.3960   -6.9040    0.6590 C.ar    1     ****   -0.0850 
      4 C4          5.3520   -6.1240    1.8200 C.ar    1     ****   -0.1510 
      5 C5          4.9630   -6.6980    3.0370 C.ar    1     ****   -0.1040 
      6 C6          4.6420   -8.0550    3.0910 C.ar    1     ****   -0.1370 
      7 C7          5.6840   -4.6710    1.7350 C.2     1     ****    0.5550 
      8 N1          5.1930   -4.0260    0.7330 N.2     1     ****   -0.6120 
      9 C8          5.4770   -2.6110    0.5810 C.3     1     ****    0.2710 
     10 C9          4.6890   -1.8790    1.6650 C.2     1     ****    0.6560 
     11 O1          3.7180   -1.1670    1.3990 O.2     1     ****   -0.6000 
     12 N2          5.1730   -1.9790    2.9510 N.am    1     ****   -0.4720 
     13 C10         6.1860   -2.8410    3.4150 C.ar    1     ****    0.0850 
     14 C11         6.5220   -4.0650    2.8140 C.ar    1     ****   -0.2150 
     15 C12         7.6070   -4.8090    3.3070 C.ar    1     ****   -0.0690 
     16 C13         8.3090   -4.3630    4.4270 C.ar    1     ****   -0.0120 
     17 C14         7.9360   -3.1870    5.0690 C.ar    1     ****   -0.0830 
     18 C15         6.8740   -2.4340    4.5680 C.ar    1     ****   -0.1690 
     19 CL1         9.6280   -5.2890    5.0330 Cl      1     ****   -0.0780 
     20 O2          5.0670   -2.1180   -0.6840 O.3     1     ****   -0.5600 
     21 H1          4.7990   -1.3080    3.6160 H       1     ****    0.3310 
     22 H2          4.1710   -2.4640   -0.8320 H       1     ****    0.4290 
     23 H3          4.4470   -9.8910    1.9820 H       1     ****    0.1350 
     24 H4          5.1120   -8.8690   -0.1770 H       1     ****    0.1380 
     25 H5          5.6870   -6.4720   -0.2950 H       1     ****    0.1520 
     26 H6          4.8930   -6.1040    3.9440 H       1     ****    0.1400 
     27 H7          4.3410   -8.5030    4.0340 H       1     ****    0.1370 
     28 H8          6.5470   -2.3860    0.7090 H       1     ****    0.1030 
     29 H9          7.8960   -5.7450    2.8340 H       1     ****    0.1650 
     30 H10         8.4680   -2.8400    5.9520 H       1     ****    0.1550 
     31 H11         6.6120   -1.5050    5.0690 H       1     ****    0.1470 
@<TRIPOS>BOND
     1  2 1 ar
     2  3 2 ar
     3  4 3 ar
     4  5 4 ar
     5  6 1 ar
     6  6 5 ar
     7  7 4 1
     8  8 7 2
     9  9 8 1
    10 10 9 1
    11 11 10 2
    12 12 10 1
    13 13 12 1
    14 14 7 1
    15 14 13 ar
    16 15 14 ar
    17 16 15 ar
    18 17 16 ar
    19 18 13 ar
    20 18 17 ar
    21 19 16 1
    22 20 9 1
    23 21 12 1
    24 22 20 1
    25 23 1 1
    26 24 2 1
    27 25 3 1
    28 26 5 1
    29 27 6 1
    30 28 9 1
    31 29 15 1
    32 30 17 1
    33 31 18 1
@<TRIPOS>SUBSTRUCTURE
1     ****    1
@<TRIPOS>MOLECULE
ZINC00000591
21 22 1 0 0 
SMALL
USER_CHARGES


@<TRIPOS>ATOM
      1 C1          3.2680   -8.7550    0.5210 C.ar    1     ****   -0.1170 
      2 C2          3.9960   -7.9850   -0.3840 C.ar    1     ****   -0.1290 
      3 C3          3.5000   -6.7510   -0.8100 C.ar    1     ****   -0.1040 
      4 C4          2.2710   -6.2700   -0.3320 C.ar    1     ****   -0.0910 
      5 C5          1.5460   -7.0610    0.5740 C.ar    1     ****   -0.1020 
      6 C6          2.0440   -8.2940    0.9980 C.ar    1     ****   -0.1300 
      7 C7          1.7400   -4.9390   -0.8180 C.3     1     ****    0.0580 
      8 C8          0.5680   -5.0830   -1.7530 C.2     1     ****    0.6820 
      9 O1          0.5640   -5.7320   -2.7890 O.2     1     ****   -0.5010 
     10 N1         -0.4780   -4.3650   -1.2330 N.2     1     ****   -0.7390 
     11 C9         -0.0600   -3.8790   -0.1110 C.2     1     ****    0.8350 
     12 O2          1.2220   -4.1740    0.2540 O.3     1     ****   -0.4520 
     13 N2         -0.7250   -3.1050    0.7830 N.pl3   1     ****   -0.9160 
     14 H1         -1.6850   -2.8230    0.6200 H       1     ****    0.4670 
     15 H2         -0.2790   -2.7890    1.6360 H       1     ****    0.4600 
     16 H3          3.6550   -9.7150    0.8510 H       1     ****    0.1340 
     17 H4          4.9490   -8.3450   -0.7600 H       1     ****    0.1360 
     18 H5          4.0810   -6.1680   -1.5210 H       1     ****    0.1360 
     19 H6          0.5860   -6.7240    0.9560 H       1     ****    0.1350 
     20 H7          1.4740   -8.8950    1.7010 H       1     ****    0.1350 
     21 H8          2.5470   -4.4010   -1.3380 H       1     ****    0.1030 
@<TRIPOS>BOND
     1  2 1 ar
     2  3 2 ar
     3  4 3 ar
     4  5 4 ar
     5  6 1 ar
     6  6 5 ar
     7  7 4 1
     8  8 7 1
     9  9 8 2
    10 10 8 1
    11 11 10 2
    12 12 7 1
    13 12 11 1
    14 13 11 1
    15 14 13 1
    16 15 13 1
    17 16 1 1
    18 17 2 1
    19 18 3 1
    20 19 5 1
    21 20 6 1
    22 21 7 1
@<TRIPOS>SUBSTRUCTURE
1     ****    1
@<TRIPOS>MOLECULE
ZINC00000609
29 30 1 0 0 
SMALL
USER_CHARGES


@<TRIPOS>ATOM
      1 C1          3.6930   -4.9630   -1.1140 C.3     1     ****   -0.1350 
      2 C2          3.0080   -6.3310   -1.1100 C.3     1     ****    0.0910 
      3 C3          1.8900   -6.4260   -0.0390 C.3     1     ****    0.1890 
      4 O1          1.3530   -7.7520   -0.0300 O.3     1     ****   -0.3710 
      5 C4          2.3400   -8.7260    0.3110 C.3     1     ****    0.1010 
      6 C5          3.4430   -8.7440   -0.7330 C.3     1     ****    0.0660 
      7 C6          0.7450   -5.4640   -0.3090 C.ar    1     ****   -0.1340 
      8 C7         -0.0930   -5.6270   -1.4230 C.ar    1     ****   -0.0980 
      9 C8         -1.1370   -4.7320   -1.6650 C.ar    1     ****   -0.1220 
     10 C9         -1.3570   -3.6650   -0.7970 C.ar    1     ****   -0.0910 
     11 C10        -0.5350   -3.4930    0.3150 C.ar    1     ****   -0.1210 
     12 C11         0.5100   -4.3860    0.5590 C.ar    1     ****   -0.1060 
     13 H1          4.5210   -4.9470   -1.8300 H       1     ****    0.0670 
     14 H2          2.9970   -4.1690   -1.4030 H       1     ****    0.1150 
     15 H3          4.0980   -4.7160   -0.1260 H       1     ****    0.0650 
     16 H4          2.5850   -6.4950   -2.1150 H       1     ****    0.1210 
     17 H5          2.3090   -6.1740    0.9510 H       1     ****    0.0690 
     18 H6          2.7320   -8.5160    1.3130 H       1     ****    0.0660 
     19 H7          1.8460   -9.7020    0.3450 H       1     ****    0.1310 
     20 H8          4.2510   -9.4320   -0.4700 H       1     ****    0.1120 
     21 H9          3.0580   -8.9790   -1.7300 H       1     ****    0.1180 
     22 H10         0.0590   -6.4560   -2.1100 H       1     ****    0.1360 
     23 H11        -1.7800   -4.8690   -2.5300 H       1     ****    0.1530 
     24 H12        -2.1700   -2.9700   -0.9850 H       1     ****    0.1550 
     25 H13        -0.7070   -2.6620    0.9930 H       1     ****    0.1540 
     26 H14         1.1390   -4.2310    1.4320 H       1     ****    0.1360 
     27 N1          4.0320   -7.3720   -0.8140 N.4     1     ****   -0.7650 
     28 H15         4.7590   -7.3610   -1.5430 H       1     ****    0.4540 
     29 H16         4.5160   -7.1540    0.0690 H       1     ****    0.4460 
@<TRIPOS>BOND
     1  2 1 1
     2  3 2 1
     3  4 3 1
     4  5 4 1
     5  6 5 1
     6  7 3 1
     7  8 7 ar
     8  9 8 ar
     9 10 9 ar
    10 11 10 ar
    11 12 7 ar
    12 12 11 ar
    13 13 1 1
    14 14 1 1
    15 15 1 1
    16 16 2 1
    17 17 3 1
    18 18 5 1
    19 19 5 1
    20 20 6 1
    21 21 6 1
    22 22 8 1
    23 23 9 1
    24 24 10 1
    25 25 11 1
    26 26 12 1
    27 27 2 1
    28 27 6 1
    29 28 27 1
    30 29 27 1
@<TRIPOS>SUBSTRUCTURE
1     ****    1
@<TRIPOS>MOLECULE
ZINC00000847
49 53 1 0 0 
SMALL
USER_CHARGES


@<TRIPOS>ATOM
      1 C1          2.2440    8.5460    9.1810 C.ar    1     ****   -0.1450 
      2 C2          0.8840    8.2440    9.1890 C.ar    1     ****   -0.1010 
      3 C3          0.3290    7.3910    8.2310 C.ar    1     ****   -0.1370 
      4 C4          1.1890    6.8520    7.2670 C.ar    1     ****   -0.0360 
      5 C5          2.5580    7.1360    7.2350 C.ar    1     ****   -0.0790 
      6 C6          3.0930    8.0010    8.2110 C.ar    1     ****   -0.0820 
      7 C7          3.1010    6.4210    6.1330 C.2     1     ****   -0.1330 
      8 C8          2.0730    5.7280    5.5330 C.2     1     ****   -0.1110 
      9 N1          0.9210    5.9990    6.2170 N.pl3   1     ****   -0.1570 
     10 C9          2.1740    4.8580    4.3250 C.3     1     ****    0.2150 
     11 C10         1.7760    3.4040    4.6130 C.3     1     ****   -0.1110 
     12 C11         1.6000    2.6580    3.2690 C.3     1     ****   -0.0410 
     13 C12         2.6490    3.0990    2.2210 C.3     1     ****   -0.0510 
     14 C13         3.0540    2.0130    1.2100 C.3     1     ****   -0.0850 
     15 C14         1.9180    1.0500    0.9130 C.3     1     ****   -0.1050 
     16 C15         1.3240    0.3740    2.1580 C.3     1     ****    0.1710 
     17 C16         1.5470    1.1170    3.4860 C.3     1     ****   -0.1800 
     18 C17         2.7870    0.5860    4.2570 C.2     1     ****    0.9280 
     19 O1          3.8690    0.4590    3.6280 O.co2   1     ****   -0.8430 
     20 O2          1.8160   -0.9540    2.2610 O.3     1     ****   -0.5560 
     21 C18         3.8960    3.6510    2.9070 C.3     1     ****    0.0680 
     22 C19         4.6800    5.0440    4.8300 C.3     1     ****    0.1080 
     23 C20         4.4850    6.3490    5.6080 C.3     1     ****   -0.0290 
     24 H1          0.0050    5.6310    5.9950 H       1     ****    0.3060 
     25 H2          1.5830   -1.4230    1.4420 H       1     ****    0.3830 
     26 H3          2.6520    9.2130    9.9360 H       1     ****    0.1380 
     27 H4          0.2420    8.6790    9.9510 H       1     ****    0.1380 
     28 H5         -0.7300    7.1580    8.2380 H       1     ****    0.1420 
     29 H6          4.1510    8.2460    8.2170 H       1     ****    0.1370 
     30 H7          1.4660    5.2540    3.5720 H       1     ****    0.0870 
     31 H8          2.5270    2.9410    5.2610 H       1     ****    0.1400 
     32 H9          0.8280    3.3560    5.1650 H       1     ****    0.0630 
     33 H10         0.6090    2.9910    2.8980 H       1     ****    0.0370 
     34 H11         2.1690    3.8820    1.6050 H       1     ****    0.0240 
     35 H12         3.3590    2.5020    0.2750 H       1     ****    0.0270 
     36 H13         3.9390    1.4580    1.5310 H       1     ****    0.1240 
     37 H14         1.1210    1.6240    0.4210 H       1     ****    0.0290 
     38 H15         2.2540    0.3030    0.1840 H       1     ****    0.0450 
     39 H16         0.2340    0.3450    1.9820 H       1     ****    0.0070 
     40 H17         0.6510    0.9540    4.1190 H       1     ****    0.0650 
     41 H18         4.3640    2.9130    3.5650 H       1     ****    0.2020 
     42 H19         4.6440    3.9670    2.1700 H       1     ****    0.0710 
     43 H20         4.6140    4.1670    5.4840 H       1     ****    0.1440 
     44 H21         5.6480    5.0450    4.3170 H       1     ****    0.0930 
     45 H22         4.6690    7.2070    4.9510 H       1     ****    0.0580 
     46 H23         5.2120    6.3960    6.4260 H       1     ****    0.0970 
     47 O3          2.5520    0.3400    5.4790 O.co2   1     ****   -0.8130 
     48 N2          3.5980    4.8860    3.7380 N.4     1     ****   -0.6670 
     49 H24         3.7030    5.7330    3.1520 H       1     ****    0.4180 
@<TRIPOS>BOND
     1  2 1 ar
     2  3 2 ar
     3  4 3 ar
     4  5 4 ar
     5  6 1 ar
     6  6 5 ar
     7  7 5 1
     8  8 7 ar
     9  9 4 1
    10  9 8 1
    11 10 8 1
    12 11 10 1
    13 12 11 1
    14 13 12 1
    15 14 13 1
    16 15 14 1
    17 16 15 1
    18 17 12 1
    19 17 16 1
    20 18 17 1
    21 19 18 1
    22 20 16 1
    23 21 13 1
    24 23 7 1
    25 23 22 1
    26 24 9 1
    27 25 20 1
    28 26 1 1
    29 27 2 1
    30 28 3 1
    31 29 6 1
    32 30 10 1
    33 31 11 1
    34 32 11 1
    35 33 12 1
    36 34 13 1
    37 35 14 1
    38 36 14 1
    39 37 15 1
    40 38 15 1
    41 39 16 1
    42 40 17 1
    43 41 21 1
    44 42 21 1
    45 43 22 1
    46 44 22 1
    47 45 23 1
    48 46 23 1
    49 47 18 2
    50 48 10 1
    51 48 21 1
    52 48 22 1
    53 49 48 1
@<TRIPOS>SUBSTRUCTURE
1     ****    1
@<TRIPOS>MOLECULE
ZINC00000920
16 16 1 0 0 
SMALL
USER_CHARGES


@<TRIPOS>ATOM
      1 C1          5.0680   -8.2230   -0.8500 C.ar    1     ****   -0.0840 
      2 C2          4.0890   -7.2370   -1.0170 C.ar    1     ****   -0.2020 
      3 C3          2.8270   -7.5590   -1.5220 C.ar    1     ****    0.0680 
      4 C4          2.5580   -8.8930   -1.8400 C.ar    1     ****   -0.2030 
      5 C5          3.5340   -9.8810   -1.6750 C.ar    1     ****   -0.0840 
      6 C6          4.8060   -9.5610   -1.1780 C.ar    1     ****   -0.1470 
      7 C7          5.8600  -10.6260   -0.9990 C.2     1     ****    0.9090 
      8 O1          6.9880  -10.2580   -0.5430 O.co2   1     ****   -0.8360 
      9 N1          1.8510   -6.5850   -1.6650 N.pl3   1     ****   -0.7970 
     10 H1          0.9550   -6.8160   -2.0720 H       1     ****    0.3510 
     11 H2          2.0660   -5.6150   -1.4740 H       1     ****    0.3510 
     12 H3          6.0390   -7.9290   -0.4580 H       1     ****    0.1500 
     13 H4          4.3270   -6.2110   -0.7470 H       1     ****    0.1050 
     14 H5          1.5810   -9.1780   -2.2230 H       1     ****    0.1050 
     15 H6          3.2840  -10.9060   -1.9390 H       1     ****    0.1500 
     16 O2          5.5470  -11.8160   -1.3180 O.co2   1     ****   -0.8360 
@<TRIPOS>BOND
     1  2 1 ar
     2  3 2 ar
     3  4 3 ar
     4  5 4 ar
     5  6 1 ar
     6  6 5 ar
     7  7 6 1
     8  8 7 1
     9  9 3 1
    10 10 9 1
    11 11 9 1
    12 12 1 1
    13 13 2 1
    14 14 4 1
    15 15 5 1
    16 16 7 2
@<TRIPOS>SUBSTRUCTURE
1     ****    1
@<TRIPOS>MOLECULE
ZINC00000946
46 49 1 0 0 
SMALL
USER_CHARGES


@<TRIPOS>ATOM
      1 C1          4.5860   -6.9350    0.0610 C.3     1     ****   -0.0860 
      2 C2          3.4370   -7.3230    1.0120 C.3     1     ****   -0.1470 
      3 C3          3.7770   -8.5840    1.8330 C.3     1     ****   -0.1680 
      4 C4          4.4070   -8.2450    3.1930 C.2     1     ****    0.5770 
      5 O1          4.3450   -9.0440    4.1230 O.2     1     ****   -0.5290 
      6 C5          5.1510   -6.9070    3.2350 C.3     1     ****   -0.1550 
      7 C6          4.1050   -5.7820    2.9980 C.3     1     ****   -0.0380 
      8 C7          3.0080   -6.2410    2.0210 C.3     1     ****   -0.0670 
      9 C8          2.2590   -5.2290    1.1540 C.3     1     ****   -0.0710 
     10 C9          1.3870   -6.1410    0.2580 C.3     1     ****   -0.1880 
     11 C10         2.1840   -7.4420    0.1890 C.2     1     ****    0.5740 
     12 O2          1.8550   -8.4190   -0.4670 O.2     1     ****   -0.5100 
     13 C11         4.8620   -4.4860    2.6880 C.3     1     ****   -0.0720 
     14 C12         5.7970   -4.1310    3.8590 C.3     1     ****   -0.0750 
     15 C13         6.7590   -5.2860    4.2250 C.3     1     ****   -0.0560 
     16 C14         5.9870   -6.6270    4.5210 C.3     1     ****   -0.0110 
     17 C15         7.0340   -7.7010    4.7590 C.2     1     ****   -0.0910 
     18 C16         8.2470   -7.4540    5.2730 C.2     1     ****   -0.2560 
     19 C17         8.6340   -6.0750    5.6700 C.2     1     ****    0.5650 
     20 O3          9.7070   -5.8870    6.2420 O.2     1     ****   -0.5320 
     21 C18         7.6690   -4.9370    5.3990 C.3     1     ****   -0.1790 
     22 C19         5.0940   -6.5410    5.7860 C.3     1     ****   -0.0900 
     23 H1          4.3030   -6.1000   -0.5910 H       1     ****    0.0420 
     24 H2          5.5190   -6.6530    0.5410 H       1     ****    0.0450 
     25 H3          4.8130   -7.7730   -0.6090 H       1     ****    0.0520 
     26 H4          2.8650   -9.1600    2.0370 H       1     ****    0.0890 
     27 H5          4.4680   -9.2380    1.2900 H       1     ****    0.0830 
     28 H6          5.8730   -6.9050    2.4020 H       1     ****    0.0740 
     29 H7          3.5430   -5.5390    3.9170 H       1     ****    0.0620 
     30 H8          2.2180   -6.6210    2.7050 H       1     ****    0.0530 
     31 H9          1.6440   -4.5440    1.7450 H       1     ****    0.0560 
     32 H10         2.9410   -4.6300    0.5420 H       1     ****    0.0520 
     33 H11         0.4220   -6.3440    0.7310 H       1     ****    0.0790 
     34 H12         1.2520   -5.7110   -0.7370 H       1     ****    0.0790 
     35 H13         5.4440   -4.5850    1.7650 H       1     ****    0.0450 
     36 H14         4.1590   -3.6590    2.5370 H       1     ****    0.0490 
     37 H15         6.3830   -3.2460    3.5820 H       1     ****    0.0490 
     38 H16         5.2000   -3.8380    4.7310 H       1     ****    0.0470 
     39 H17         7.3950   -5.3990    3.3240 H       1     ****    0.0520 
     40 H18         6.7880   -8.7360    4.5350 H       1     ****    0.1500 
     41 H19         8.9620   -8.2480    5.4490 H       1     ****    0.1520 
     42 H20         8.2620   -4.0510    5.1450 H       1     ****    0.0740 
     43 H21         7.1110   -4.7170    6.3140 H       1     ****    0.0760 
     44 H22         5.6980   -6.5050    6.7010 H       1     ****    0.0450 
     45 H23         4.4600   -5.6510    5.8060 H       1     ****    0.0380 
     46 H24         4.4380   -7.4090    5.8940 H       1     ****    0.0640 
@<TRIPOS>BOND
     1  2 1 1
     2  3 2 1
     3  4 3 1
     4  5 4 2
     5  6 4 1
     6  7 6 1
     7  8 2 1
     8  8 7 1
     9  9 8 1
    10 10 9 1
    11 11 2 1
    12 11 10 1
    13 12 11 2
    14 13 7 1
    15 14 13 1
    16 15 14 1
    17 16 6 1
    18 16 15 1
    19 17 16 1
    20 18 17 2
    21 19 18 1
    22 20 19 2
    23 21 15 1
    24 21 19 1
    25 22 16 1
    26 23 1 1
    27 24 1 1
    28 25 1 1
    29 26 3 1
    30 27 3 1
    31 28 6 1
    32 29 7 1
    33 30 8 1
    34 31 9 1
    35 32 9 1
    36 33 10 1
    37 34 10 1
    38 35 13 1
    39 36 13 1
    40 37 14 1
    41 38 14 1
    42 39 15 1
    43 40 17 1
    44 41 18 1
    45 42 21 1
    46 43 21 1
    47 44 22 1
    48 45 22 1
    49 46 22 1
@<TRIPOS>SUBSTRUCTURE
1     ****    1
@<TRIPOS>MOLECULE
ZINC00000959
27 29 1 0 0 
SMALL
USER_CHARGES


@<TRIPOS>ATOM
      1 C1          4.9200   -8.6220    0.7510 C.ar    1     ****   -0.0560 
      2 C2          4.3280   -7.6570    1.5630 C.ar    1     ****   -0.1960 
      3 C3          4.1290   -6.3450    1.0980 C.ar    1     ****    0.0110 
      4 C4          4.5330   -6.0090   -0.2010 C.ar    1     ****   -0.2500 
      5 C5          5.1290   -6.9910   -1.0120 C.ar    1     ****    0.2160 
      6 C6          5.3210   -8.2890   -0.5380 C.ar    1     ****   -0.1900 
      7 O1          5.5560   -6.7570   -2.2920 O.3     1     ****   -0.5040 
      8 C7          4.3220   -4.6240   -0.6880 C.2     1     ****    0.6300 
      9 O2          4.6720   -4.3190   -1.8240 O.2     1     ****   -0.6290 
     10 C8          3.6900   -3.6060    0.1860 C.ar    1     ****   -0.2500 
     11 C9          3.2950   -3.9680    1.4800 C.ar    1     ****    0.0110 
     12 C10         2.6970   -3.0050    2.3120 C.ar    1     ****   -0.1960 
     13 C11         2.4930   -1.7010    1.8650 C.ar    1     ****   -0.0560 
     14 C12         2.8850   -1.3410    0.5810 C.ar    1     ****   -0.1900 
     15 C13         3.4800   -2.2870   -0.2550 C.ar    1     ****    0.2160 
     16 O3          3.8320   -1.8420   -1.5010 O.3     1     ****   -0.5030 
     17 C14         3.4850   -5.3550    2.0270 C.3     1     ****   -0.0160 
     18 H1          5.3750   -5.8270   -2.5180 H       1     ****    0.4630 
     19 H2          4.2350   -2.5780   -1.9940 H       1     ****    0.4630 
     20 H3          5.0670   -9.6320    1.1240 H       1     ****    0.1390 
     21 H4          4.0190   -7.9320    2.5690 H       1     ****    0.1370 
     22 H5          5.7820   -9.0430   -1.1700 H       1     ****    0.1570 
     23 H6          2.3850   -3.2720    3.3190 H       1     ****    0.1370 
     24 H7          2.0290   -0.9670    2.5190 H       1     ****    0.1390 
     25 H8          2.7250   -0.3240    0.2330 H       1     ****    0.1570 
     26 H9          2.4990   -5.7460    2.3120 H       1     ****    0.0780 
     27 H10         4.1040   -5.2830    2.9310 H       1     ****    0.0790 
@<TRIPOS>BOND
     1  2 1 ar
     2  3 2 ar
     3  4 3 ar
     4  5 4 ar
     5  6 1 ar
     6  6 5 ar
     7  7 5 1
     8  8 4 1
     9  9 8 2
    10 10 8 1
    11 11 10 ar
    12 12 11 ar
    13 13 12 ar
    14 14 13 ar
    15 15 10 ar
    16 15 14 ar
    17 16 15 1
    18 17 3 1
    19 17 11 1
    20 18 7 1
    21 19 16 1
    22 20 1 1
    23 21 2 1
    24 22 6 1
    25 23 12 1
    26 24 13 1
    27 25 14 1
    28 26 17 1
    29 27 17 1
@<TRIPOS>SUBSTRUCTURE
1     ****    1
@<TRIPOS>MOLECULE
ZINC00000978
40 43 1 0 0 
SMALL
USER_CHARGES


@<TRIPOS>ATOM
      1 C1          5.2460  -10.8100    3.8920 C.3     1     ****    0.0840 
      2 C2          6.3670   -8.6010    3.8700 C.3     1     ****    0.1140 
      3 C3          6.7730   -7.4260    2.9830 C.3     1     ****   -0.0550 
      4 C4          5.5700   -6.7270    2.3570 C.2     1     ****   -0.1960 
      5 C5          5.2940   -5.3960    2.4640 C.2     1     ****    0.0890 
      6 C6          4.0320   -4.7850    1.9720 C.ar    1     ****   -0.1890 
      7 C7          3.4950   -4.9300    0.6900 C.ar    1     ****   -0.0970 
      8 C8          2.2970   -4.2930    0.3560 C.ar    1     ****   -0.1410 
      9 C9          1.6440   -3.4840    1.2880 C.ar    1     ****   -0.0830 
     10 C10         2.2030   -3.2780    2.5470 C.ar    1     ****   -0.1880 
     11 C11         3.4080   -3.9010    2.8710 C.ar    1     ****    0.3340 
     12 O1          3.9780   -3.5820    4.0920 O.3     1     ****   -0.3700 
     13 C12         5.3670   -3.6050    4.1300 C.ar    1     ****    0.5880 
     14 C13         6.0950   -4.4690    3.3020 C.ar    1     ****   -0.2330 
     15 C14         7.4780   -4.3010    3.2590 C.ar    1     ****   -0.0590 
     16 C15         8.0860   -3.3740    4.1020 C.ar    1     ****   -0.2640 
     17 C16         7.2790   -2.6240    4.9420 C.ar    1     ****    0.4430 
     18 N1          5.9310   -2.7110    4.9730 N.ar    1     ****   -0.6420 
     19 C17         4.6870   -7.7510    1.6490 C.3     1     ****   -0.0560 
     20 C18         4.3120   -8.9210    2.5560 C.3     1     ****    0.1140 
     21 H1          4.6850  -11.5040    3.2610 H       1     ****    0.1030 
     22 H2          6.1930  -11.2640    4.1970 H       1     ****    0.1030 
     23 H3          4.6560  -10.5060    4.7610 H       1     ****    0.1060 
     24 H4          5.7620   -8.2790    4.7260 H       1     ****    0.1080 
     25 H5          7.2570   -9.1270    4.2320 H       1     ****    0.0970 
     26 H6          7.3780   -6.7710    3.6080 H       1     ****    0.1050 
     27 H7          7.4270   -7.7790    2.1750 H       1     ****    0.0690 
     28 H8          3.9980   -5.5310   -0.0630 H       1     ****    0.1370 
     29 H9          1.8740   -4.4240   -0.6360 H       1     ****    0.1510 
     30 H10         0.7130   -2.9930    1.0200 H       1     ****    0.1560 
     31 H11         1.7160   -2.6130    3.2550 H       1     ****    0.1730 
     32 H12         8.0940   -4.8750    2.5730 H       1     ****    0.1430 
     33 H13         9.1620   -3.2410    4.0980 H       1     ****    0.1620 
     34 H14         7.7100   -1.8960    5.6210 H       1     ****    0.0480 
     35 H15         3.7460   -7.3370    1.2890 H       1     ****    0.1100 
     36 H16         5.2240   -8.1210    0.7660 H       1     ****    0.0690 
     37 H17         3.7520   -9.6750    1.9920 H       1     ****    0.0970 
     38 H18         3.7190   -8.5980    3.4190 H       1     ****    0.1080 
     39 N2          5.5610   -9.5860    3.0670 N.4     1     ****   -0.6820 
     40 H19         6.1080   -9.9440    2.2650 H       1     ****    0.4460 
@<TRIPOS>BOND
     1  3 2 1
     2  4 3 1
     3  5 4 2
     4  6 5 1
     5  7 6 ar
     6  8 7 ar
     7  9 8 ar
     8 10 9 ar
     9 11 6 ar
    10 11 10 ar
    11 12 11 1
    12 13 12 1
    13 14 5 1
    14 14 13 ar
    15 15 14 ar
    16 16 15 ar
    17 17 16 ar
    18 18 13 ar
    19 18 17 ar
    20 19 4 1
    21 20 19 1
    22 21 1 1
    23 22 1 1
    24 23 1 1
    25 24 2 1
    26 25 2 1
    27 26 3 1
    28 27 3 1
    29 28 7 1
    30 29 8 1
    31 30 9 1
    32 31 10 1
    33 32 15 1
    34 33 16 1
    35 34 17 1
    36 35 19 1
    37 36 19 1
    38 37 20 1
    39 38 20 1
    40 39 1 1
    41 39 2 1
    42 39 20 1
    43 40 39 1
@<TRIPOS>SUBSTRUCTURE
1     ****    1
@<TRIPOS>MOLECULE
ZINC00001042
28 30 1 0 0 
SMALL
USER_CHARGES


@<TRIPOS>ATOM
      1 C1          6.2210   -6.2540   -0.3850 C.ar    1     ****   -0.1130 
      2 C2          6.0440   -4.8750   -0.3170 C.ar    1     ****   -0.1250 
      3 C3          4.7620   -4.3370   -0.2550 C.ar    1     ****   -0.0440 
      4 C4          3.6600   -5.2020   -0.3520 C.ar    1     ****   -0.0620 
      5 C5          3.8300   -6.5980   -0.4140 C.ar    1     ****    0.2970 
      6 C6          5.1380   -7.1210   -0.4190 C.ar    1     ****    0.3060 
      7 N1          5.3650   -8.4450   -0.4760 N.ar    1     ****   -0.6090 
      8 C7          4.2990   -9.2610   -0.5330 C.ar    1     ****    0.3300 
      9 C8          3.0230   -8.7680   -0.5360 C.ar    1     ****    0.3280 
     10 N2          2.7790   -7.4460   -0.4790 N.ar    1     ****   -0.6110 
     11 BR1         1.8900   -4.5110   -0.5880 Br      1     ****   -0.0240 
     12 N3          4.6860   -2.9140   -0.1550 N.pl3   1     ****   -0.3040 
     13 C9          3.9040   -2.2530    0.7660 C.cat   1     ****    0.4820 
     14 C10         2.5080   -1.7850    2.5590 C.3     1     ****    0.0010 
     15 C11         2.9290   -0.4710    1.8880 C.3     1     ****    0.0010 
     16 N4          3.8040   -0.8610    0.7840 N.pl3   1     ****   -0.3730 
     17 H1          5.3970   -2.3650   -0.6360 H       1     ****    0.3400 
     18 H2          4.2690   -0.2510    0.1180 H       1     ****    0.3310 
     19 H3          7.2330   -6.6540   -0.4070 H       1     ****    0.1840 
     20 H4          6.9180   -4.2300   -0.2790 H       1     ****    0.1630 
     21 H5          4.5080  -10.3220   -0.5770 H       1     ****    0.0610 
     22 H6          2.1550   -9.4140   -0.5850 H       1     ****    0.0610 
     23 H7          1.4250   -1.9330    2.5100 H       1     ****    0.0960 
     24 H8          2.8380   -1.8300    3.6000 H       1     ****    0.1060 
     25 H9          2.0680    0.0730    1.4900 H       1     ****    0.1070 
     26 H10         3.4840    0.1730    2.5760 H       1     ****    0.0920 
     27 N5          3.1720   -2.8420    1.7970 N.pl3   1     ****   -0.3600 
     28 H11         3.1310   -3.8400    1.9730 H       1     ****    0.3400 
@<TRIPOS>BOND
     1  2 1 ar
     2  3 2 ar
     3  4 3 ar
     4  5 4 ar
     5  6 1 ar
     6  6 5 ar
     7  7 6 ar
     8  8 7 ar
     9  9 8 ar
    10 10 5 ar
    11 10 9 ar
    12 11 4 1
    13 12 3 1
    14 13 12 1
    15 15 14 1
    16 16 13 1
    17 16 15 1
    18 17 12 1
    19 18 16 1
    20 19 1 1
    21 20 2 1
    22 21 8 1
    23 22 9 1
    24 23 14 1
    25 24 14 1
    26 25 15 1
    27 26 15 1
    28 27 13 1
    29 27 14 1
    30 28 27 1
@<TRIPOS>SUBSTRUCTURE
1     ****    1
@<TRIPOS>MOLECULE
ZINC00001060
23 24 1 0 0 
SMALL
USER_CHARGES


@<TRIPOS>ATOM
      1 C1          3.5060   -8.8780    0.3140 C.ar    1     ****   -0.1090 
      2 C2          4.1940   -7.9610   -0.4810 C.ar    1     ****   -0.1320 
      3 C3          3.7600   -6.6370   -0.5570 C.ar    1     ****   -0.0950 
      4 C4          2.6310   -6.2240    0.1620 C.ar    1     ****   -0.1030 
      5 C5          1.9440   -7.1490    0.9600 C.ar    1     ****   -0.0940 
      6 C6          2.3820   -8.4720    1.0330 C.ar    1     ****   -0.1330 
      7 C7          2.1700   -4.8290    0.0810 C.2     1     ****    0.2240 
      8 C8          1.2830   -4.3970   -0.8360 C.2     1     ****   -0.2200 
      9 C9          0.9000   -2.9330   -0.7990 C.2     1     ****    0.7140 
     10 O1          0.0950   -2.4900   -1.6140 O.2     1     ****   -0.5230 
     11 N1          1.4820   -2.1280    0.1680 N.2     1     ****   -0.7220 
     12 C10         2.3320   -2.6420    1.0130 C.2     1     ****    0.8230 
     13 N2          2.6970   -3.9610    1.0040 N.pl3   1     ****   -0.7280 
     14 N3          2.9380   -1.9020    1.9880 N.pl3   1     ****   -0.8870 
     15 BR1         0.4850   -5.4630   -2.1500 Br      1     ****   -0.0170 
     16 H1          3.3620   -4.3270    1.6770 H       1     ****    0.4580 
     17 H2          2.7380   -0.9130    2.0810 H       1     ****    0.4320 
     18 H3          3.5980   -2.3090    2.6400 H       1     ****    0.4010 
     19 H4          3.8440   -9.9080    0.3720 H       1     ****    0.1380 
     20 H5          5.0690   -8.2790   -1.0410 H       1     ****    0.1410 
     21 H6          4.3070   -5.9350   -1.1820 H       1     ****    0.1450 
     22 H7          1.0660   -6.8490    1.5260 H       1     ****    0.1450 
     23 H8          1.8470   -9.1870    1.6520 H       1     ****    0.1400 
@<TRIPOS>BOND
     1  2 1 ar
     2  3 2 ar
     3  4 3 ar
     4  5 4 ar
     5  6 1 ar
     6  6 5 ar
     7  7 4 1
     8  8 7 2
     9  9 8 1
    10 10 9 2
    11 11 9 1
    12 12 11 2
    13 13 7 1
    14 13 12 1
    15 14 12 1
    16 15 8 1
    17 16 13 1
    18 17 14 1
    19 18 14 1
    20 19 1 1
    21 20 2 1
    22 21 3 1
    23 22 5 1
    24 23 6 1
@<TRIPOS>SUBSTRUCTURE
1     ****    1
@<TRIPOS>MOLECULE
ZINC00001061
21 22 1 0 0 
SMALL
USER_CHARGES


@<TRIPOS>ATOM
      1 C1          3.2140   -8.0160   -2.4410 C.3     1     ****   -0.1530 
      2 C2          3.3010   -6.9550   -1.3880 C.ar    1     ****    0.4210 
      3 C3          4.5180   -6.3790   -1.0790 C.ar    1     ****   -0.2260 
      4 C4          4.5460   -5.3990   -0.0940 C.ar    1     ****   -0.0940 
      5 C5          3.3680   -4.9990    0.5740 C.ar    1     ****   -0.0930 
      6 C6          3.3200   -4.0060    1.5890 C.ar    1     ****   -0.0490 
      7 C7          2.1170   -3.6610    2.2060 C.ar    1     ****   -0.0370 
      8 C8          0.9470   -4.3010    1.8210 C.ar    1     ****   -0.1450 
      9 C9          0.9840   -5.2800    0.8240 C.ar    1     ****    0.1490 
     10 C10         2.1730   -5.6460    0.1880 C.ar    1     ****    0.3840 
     11 N1          2.1520   -6.5980   -0.7700 N.ar    1     ****   -0.6280 
     12 O1         -0.1710   -5.9190    0.4370 O.3     1     ****   -0.4520 
     13 BR1        -0.6790   -3.8220    2.6700 Br      1     ****   -0.0740 
     14 BR2         4.8740   -3.0740    2.1820 Br      1     ****   -0.0790 
     15 H1         -0.9070   -5.5610    0.9640 H       1     ****    0.4330 
     16 H2          3.8320   -8.8750   -2.1640 H       1     ****    0.0530 
     17 H3          2.1820   -8.3630   -2.5610 H       1     ****    0.0700 
     18 H4          3.5540   -7.6230   -3.4040 H       1     ****    0.0520 
     19 H5          5.4310   -6.6770   -1.5840 H       1     ****    0.1490 
     20 H6          5.5090   -4.9530    0.1400 H       1     ****    0.1570 
     21 H7          2.0940   -2.8990    2.9820 H       1     ****    0.1630 
@<TRIPOS>BOND
     1  2 1 1
     2  3 2 ar
     3  4 3 ar
     4  5 4 ar
     5  6 5 ar
     6  7 6 ar
     7  8 7 ar
     8  9 8 ar
     9 10 5 ar
    10 10 9 ar
    11 11 2 ar
    12 11 10 ar
    13 12 9 1
    14 13 8 1
    15 14 6 1
    16 15 12 1
    17 16 1 1
    18 17 1 1
    19 18 1 1
    20 19 3 1
    21 20 4 1
    22 21 7 1
@<TRIPOS>SUBSTRUCTURE
1     ****    1
@<TRIPOS>MOLECULE
ZINC00001124
16 16 1 0 0 
SMALL
USER_CHARGES


@<TRIPOS>ATOM
      1 C1          6.7050   -8.0500   -0.6190 C.3     1     ****   -0.0590 
      2 C2          5.3780   -8.7520   -0.5410 C.ar    1     ****   -0.0260 
      3 C3          4.9450   -9.5270   -1.6280 C.ar    1     ****   -0.2100 
      4 C4          3.7170  -10.1860   -1.5760 C.ar    1     ****    0.1300 
      5 C5          2.9020  -10.0900   -0.4540 C.ar    1     ****   -0.1550 
      6 C6          3.3200   -9.3240    0.6330 C.ar    1     ****   -0.0870 
      7 C7          4.5500   -8.6580    0.5910 C.ar    1     ****   -0.0230 
      8 CL1         5.0100   -7.7240    1.9710 Cl      1     ****   -0.0970 
      9 O1          3.2800  -10.9450   -2.6250 O.3     1     ****   -0.4950 
     10 H1          3.9500  -10.9170   -3.3290 H       1     ****    0.4210 
     11 H2          7.2050   -8.2400   -1.5750 H       1     ****    0.0430 
     12 H3          6.5700   -6.9670   -0.5300 H       1     ****    0.0580 
     13 H4          7.3710   -8.4040    0.1750 H       1     ****    0.0580 
     14 H5          5.5690   -9.6140   -2.5140 H       1     ****    0.1380 
     15 H6          1.9470  -10.6050   -0.4180 H       1     ****    0.1560 
     16 H7          2.6780   -9.2520    1.5080 H       1     ****    0.1490 
@<TRIPOS>BOND
     1  2 1 1
     2  3 2 ar
     3  4 3 ar
     4  5 4 ar
     5  6 5 ar
     6  7 2 ar
     7  7 6 ar
     8  8 7 1
     9  9 4 1
    10 10 9 1
    11 11 1 1
    12 12 1 1
    13 13 1 1
    14 14 3 1
    15 15 5 1
    16 16 6 1
@<TRIPOS>SUBSTRUCTURE
1     ****    1
@<TRIPOS>MOLECULE
ZINC00001162
31 33 1 0 0 
SMALL
USER_CHARGES


@<TRIPOS>ATOM
      1 C1          4.8960   -8.1200    0.8970 C.ar    1     ****   -0.1260 
      2 C2          4.6350   -7.9130    2.2460 C.ar    1     ****   -0.1230 
      3 C3          4.2800   -6.6430    2.6980 C.ar    1     ****   -0.1200 
      4 C4          4.1730   -5.5580    1.8070 C.ar    1     ****   -0.0410 
      5 C5          4.4270   -5.7730    0.4370 C.ar    1     ****   -0.0360 
      6 C6          4.7990   -7.0560    0.0000 C.ar    1     ****   -0.1150 
      7 C7          4.3830   -4.7030   -0.5720 C.2     1     ****   -0.0750 
      8 C8          3.5370   -3.6630   -0.6110 C.2     1     ****   -0.1270 
      9 C9          2.4540   -3.3730    0.3390 C.ar    1     ****   -0.0340 
     10 C10         1.2830   -2.7910   -0.1770 C.ar    1     ****   -0.1220 
     11 C11         0.2090   -2.4800    0.6550 C.ar    1     ****   -0.1250 
     12 C12         0.2920   -2.7390    2.0180 C.ar    1     ****   -0.1300 
     13 C13         1.4520   -3.3000    2.5480 C.ar    1     ****   -0.1290 
     14 C14         2.5500   -3.6160    1.7230 C.ar    1     ****   -0.0800 
     15 C15         3.8060   -4.1890    2.3670 C.3     1     ****   -0.0360 
     16 C16         4.9780   -3.2020    2.3640 C.2     1     ****    0.6590 
     17 O1          6.0760   -3.4340    1.8630 O.2     1     ****   -0.5960 
     18 N1          4.7160   -2.0250    3.0330 N.am    1     ****   -0.6670 
     19 H1          5.4300   -1.3080    3.1020 H       1     ****    0.3090 
     20 H2          3.8200   -1.8250    3.4640 H       1     ****    0.3050 
     21 H3          5.1790   -9.1060    0.5410 H       1     ****    0.1330 
     22 H4          4.7120   -8.7380    2.9480 H       1     ****    0.1330 
     23 H5          4.0900   -6.5050    3.7610 H       1     ****    0.1300 
     24 H6          5.0120   -7.2420   -1.0510 H       1     ****    0.1330 
     25 H7          5.1090   -4.7940   -1.3770 H       1     ****    0.1330 
     26 H8          3.6240   -2.9720   -1.4470 H       1     ****    0.1290 
     27 H9          1.1920   -2.5820   -1.2420 H       1     ****    0.1360 
     28 H10        -0.6920   -2.0370    0.2390 H       1     ****    0.1350 
     29 H11        -0.5440   -2.5000    2.6700 H       1     ****    0.1350 
     30 H12         1.4970   -3.4850    3.6190 H       1     ****    0.1340 
     31 H13         3.5840   -4.3350    3.4360 H       1     ****    0.0800 
@<TRIPOS>BOND
     1  2 1 ar
     2  3 2 ar
     3  4 3 ar
     4  5 4 ar
     5  6 1 ar
     6  6 5 ar
     7  7 5 1
     8  8 7 2
     9  9 8 1
    10 10 9 ar
    11 11 10 ar
    12 12 11 ar
    13 13 12 ar
    14 14 9 ar
    15 14 13 ar
    16 15 4 1
    17 15 14 1
    18 16 15 1
    19 17 16 2
    20 18 16 1
    21 19 18 1
    22 20 18 1
    23 21 1 1
    24 22 2 1
    25 23 3 1
    26 24 6 1
    27 25 7 1
    28 26 8 1
    29 27 10 1
    30 28 11 1
    31 29 12 1
    32 30 13 1
    33 31 15 1
@<TRIPOS>SUBSTRUCTURE
1     ****    1
@<TRIPOS>MOLECULE
ZINC00001175
34 36 1 0 0 
SMALL
USER_CHARGES


@<TRIPOS>ATOM
      1 C1          2.2480   -6.8410   -3.0200 C.3     1     ****    0.0750 
      2 N1          2.4820   -5.7970   -2.0220 N.am    1     ****   -0.3780 
      3 C2          3.5190   -4.8320   -2.2740 C.ar    1     ****    0.0340 
      4 C3          4.6380   -5.2620   -3.0260 C.ar    1     ****   -0.1380 
      5 C4          5.7120   -4.4200   -3.3120 C.ar    1     ****   -0.1160 
      6 C5          5.6930   -3.1170   -2.8490 C.ar    1     ****    0.0180 
      7 C6          4.5970   -2.6520   -2.1250 C.ar    1     ****   -0.1290 
      8 C7          3.4780   -3.4780   -1.8470 C.ar    1     ****    0.0440 
      9 N2          2.3560   -2.8710   -1.1650 N.am    1     ****   -0.2910 
     10 C8          1.6100   -3.5240   -0.1790 C.2     1     ****    0.7150 
     11 O1          0.5770   -3.1000    0.3450 O.2     1     ****   -0.5950 
     12 C9          2.1240   -4.8740    0.2190 C.3     1     ****   -0.2280 
     13 C10         1.7550   -5.8740   -0.8350 C.2     1     ****    0.7040 
     14 O2          0.8770   -6.7080   -0.6080 O.2     1     ****   -0.6020 
     15 C11         1.9960   -1.5260   -1.5530 C.ar    1     ****    0.0410 
     16 C12         2.0470   -1.1210   -2.9010 C.ar    1     ****   -0.1380 
     17 C13         1.6840    0.1750   -3.2770 C.ar    1     ****   -0.1200 
     18 C14         1.2610    1.0880   -2.3170 C.ar    1     ****   -0.1340 
     19 C15         1.1960    0.7050   -0.9800 C.ar    1     ****   -0.1180 
     20 C16         1.5560   -0.5910   -0.6010 C.ar    1     ****   -0.1250 
     21 CL1         7.0200   -2.0700   -3.1680 Cl      1     ****   -0.0780 
     22 H1          2.3590   -6.4370   -4.0320 H       1     ****    0.0530 
     23 H2          2.9500   -7.6630   -2.8500 H       1     ****    0.0310 
     24 H3          1.2330   -7.2400   -2.9300 H       1     ****    0.0780 
     25 H4          4.7160   -6.2880   -3.3800 H       1     ****    0.1490 
     26 H5          6.5560   -4.8020   -3.8800 H       1     ****    0.1560 
     27 H6          4.6220   -1.6260   -1.7610 H       1     ****    0.1670 
     28 H7          3.2010   -4.8630    0.4100 H       1     ****    0.0950 
     29 H8          1.6500   -5.1650    1.1640 H       1     ****    0.1220 
     30 H9          2.3410   -1.8160   -3.6850 H       1     ****    0.1420 
     31 H10         1.7260    0.4670   -4.3230 H       1     ****    0.1360 
     32 H11         0.9790    2.0950   -2.6090 H       1     ****    0.1360 
     33 H12         0.8690    1.4170   -0.2270 H       1     ****    0.1380 
     34 H13         1.5190   -0.8400    0.4560 H       1     ****    0.1570 
@<TRIPOS>BOND
     1  2 1 1
     2  3 2 1
     3  4 3 ar
     4  5 4 ar
     5  6 5 ar
     6  7 6 ar
     7  8 3 ar
     8  8 7 ar
     9  9 8 1
    10 10 9 1
    11 11 10 2
    12 12 10 1
    13 13 2 1
    14 13 12 1
    15 14 13 2
    16 15 9 1
    17 16 15 ar
    18 17 16 ar
    19 18 17 ar
    20 19 18 ar
    21 20 15 ar
    22 20 19 ar
    23 21 6 1
    24 22 1 1
    25 23 1 1
    26 24 1 1
    27 25 4 1
    28 26 5 1
    29 27 7 1
    30 28 12 1
    31 29 12 1
    32 30 16 1
    33 31 17 1
    34 32 18 1
    35 33 19 1
    36 34 20 1
@<TRIPOS>SUBSTRUCTURE
1     ****    1
@<TRIPOS>MOLECULE
ZINC00001196
18 18 1 0 0 
SMALL
USER_CHARGES


@<TRIPOS>ATOM
      1 C1          3.7130   -8.8450    0.6700 C.3     1     ****   -0.0800 
      2 C2          3.6690   -7.8540   -0.4630 C.2     1     ****    0.1430 
      3 C3          2.6490   -7.7360   -1.3360 C.2     1     ****   -0.1570 
      4 C4          2.7400   -6.7030   -2.4190 C.2     1     ****    0.5880 
      5 C5          3.9780   -5.8570   -2.4590 C.2     1     ****   -0.1570 
      6 C6          4.9360   -6.0640   -1.5330 C.2     1     ****    0.1430 
      7 N1          4.7770   -7.0370   -0.5660 N.pl3   1     ****   -0.6010 
      8 C7          6.2260   -5.2930   -1.4520 C.3     1     ****   -0.0800 
      9 CL1         4.0660   -4.6760   -3.7080 Cl      1     ****   -0.0620 
     10 O1          1.8380   -6.5550   -3.2400 O.2     1     ****   -0.5310 
     11 CL2         1.2210   -8.6970   -1.3060 Cl      1     ****   -0.0610 
     12 H1          5.5220   -7.1590    0.1120 H       1     ****    0.4540 
     13 H2          2.8270   -9.4810    0.7340 H       1     ****    0.0840 
     14 H3          4.5810   -9.5040    0.5590 H       1     ****    0.0570 
     15 H4          3.8050   -8.3170    1.6260 H       1     ****    0.0600 
     16 H5          6.3330   -4.5280   -2.2250 H       1     ****    0.0840 
     17 H6          6.3020   -4.7880   -0.4820 H       1     ****    0.0570 
     18 H7          7.0780   -5.9750   -1.5500 H       1     ****    0.0590 
@<TRIPOS>BOND
     1  2 1 1
     2  3 2 2
     3  4 3 1
     4  5 4 1
     5  6 5 2
     6  7 2 1
     7  7 6 1
     8  8 6 1
     9  9 5 1
    10 10 4 2
    11 11 3 1
    12 12 7 1
    13 13 1 1
    14 14 1 1
    15 15 1 1
    16 16 8 1
    17 17 8 1
    18 18 8 1
@<TRIPOS>SUBSTRUCTURE
1     ****    1
@<TRIPOS>MOLECULE
ZINC00001219
28 31 1 0 0 
SMALL
USER_CHARGES


@<TRIPOS>ATOM
      1 C1          1.1980    4.1800    1.8630 C.ar    1     ****   -0.1620 
      2 C2          0.9360    3.1220    0.9830 C.ar    1     ****   -0.0470 
      3 C3          1.7680    1.9870    1.0160 C.ar    1     ****   -0.0820 
      4 C4          2.8200    1.9660    1.9280 C.ar    1     ****    0.0860 
      5 C5          3.1110    3.0000    2.8180 C.ar    1     ****   -0.2060 
      6 C6          2.2650    4.1110    2.7580 C.ar    1     ****    0.1450 
      7 O1          2.4660    5.1790    3.5910 O.3     1     ****   -0.4900 
      8 O2          3.5170    0.8000    1.8230 O.2     1     ****   -0.1750 
      9 C7          2.9170    0.0670    0.8460 C.2     1     ****    0.1870 
     10 C8          1.8390    0.7490    0.3180 C.2     1     ****   -0.2270 
     11 C9          1.0160    0.2060   -0.7390 C.2     1     ****    0.7700 
     12 O3          0.0550    0.7980   -1.2190 O.2     1     ****   -0.5570 
     13 O4          1.3910   -1.0710   -1.1940 O.3     1     ****   -0.3340 
     14 C10         2.5010   -1.7550   -0.6400 C.ar    1     ****    0.2070 
     15 C11         3.2790   -1.1980    0.3860 C.ar    1     ****   -0.1670 
     16 C12         4.3700   -1.9160    0.9040 C.ar    1     ****   -0.0250 
     17 C13         4.6660   -3.1790    0.3870 C.ar    1     ****   -0.1860 
     18 C14         3.8790   -3.7160   -0.6350 C.ar    1     ****    0.1840 
     19 C15         2.7930   -3.0150   -1.1580 C.ar    1     ****   -0.2490 
     20 O5          4.2070   -4.9570   -1.1080 O.3     1     ****   -0.4860 
     21 H1          3.2370    4.9930    4.1530 H       1     ****    0.4240 
     22 H2          3.5770   -5.1980   -1.8090 H       1     ****    0.4300 
     23 H3          0.5600    5.0600    1.8430 H       1     ****    0.1590 
     24 H4          0.1020    3.1860    0.2890 H       1     ****    0.1630 
     25 H5          3.9430    2.9340    3.5080 H       1     ****    0.1560 
     26 H6          4.9870   -1.5040    1.6990 H       1     ****    0.1560 
     27 H7          5.5080   -3.7390    0.7830 H       1     ****    0.1620 
     28 H8          2.1830   -3.4360   -1.9510 H       1     ****    0.1650 
@<TRIPOS>BOND
     1  2 1 ar
     2  3 2 ar
     3  4 3 ar
     4  5 4 ar
     5  6 1 ar
     6  6 5 ar
     7  7 6 1
     8  8 4 1
     9  9 8 1
    10 10 3 1
    11 10 9 ar
    12 11 10 1
    13 12 11 2
    14 13 11 1
    15 14 13 1
    16 15 9 1
    17 15 14 ar
    18 16 15 ar
    19 17 16 ar
    20 18 17 ar
    21 19 14 ar
    22 19 18 ar
    23 20 18 1
    24 21 7 1
    25 22 20 1
    26 23 1 1
    27 24 2 1
    28 25 5 1
    29 26 16 1
    30 27 17 1
    31 28 19 1
@<TRIPOS>SUBSTRUCTURE
1     ****    1
@<TRIPOS>MOLECULE
ZINC00001234
20 20 1 0 0 
SMALL
USER_CHARGES


@<TRIPOS>ATOM
      1 C1          6.3090   -9.6050   -1.1800 C.3     1     ****   -0.0750 
      2 C2          6.4440   -9.0150    0.2220 C.3     1     ****   -0.0720 
      3 C3          5.0780   -9.1710    0.8950 C.3     1     ****   -0.0790 
      4 C4          4.1000   -9.4860   -0.2370 C.3     1     ****   -0.0600 
      5 C5          4.9560  -10.3100   -1.2020 C.3     1     ****   -0.0730 
      6 C6          3.5150   -8.2680   -1.0030 C.2     1     ****    0.9400 
      7 O1          4.0430   -7.1480   -0.7620 O.co2   1     ****   -0.7030 
      8 H1          2.3570  -10.6190   -0.4500 H       1     ****    0.4850 
      9 H2          3.3710  -11.2360    0.7180 H       1     ****    0.4130 
     10 H3          7.1280  -10.2900   -1.4180 H       1     ****    0.0390 
     11 H4          6.3270   -8.8000   -1.9240 H       1     ****    0.0660 
     12 H5          7.2160   -9.5360    0.7980 H       1     ****    0.0360 
     13 H6          6.7380   -7.9610    0.1650 H       1     ****    0.0680 
     14 H7          5.1340   -9.9960    1.6160 H       1     ****    0.0170 
     15 H8          4.8080   -8.2710    1.4580 H       1     ****    0.0980 
     16 H9          4.5540  -10.3600   -2.2190 H       1     ****    0.0860 
     17 H10         5.0820  -11.3400   -0.8440 H       1     ****    0.0200 
     18 O2          2.5530   -8.5550   -1.7750 O.co2   1     ****   -0.8070 
     19 N1          3.0120  -10.3660    0.3040 N.4     1     ****   -0.8300 
     20 H11         2.4650   -9.8750    1.0230 H       1     ****    0.4310 
@<TRIPOS>BOND
     1  2 1 1
     2  3 2 1
     3  4 3 1
     4  5 1 1
     5  5 4 1
     6  6 4 1
     7  7 6 1
     8 10 1 1
     9 11 1 1
    10 12 2 1
    11 13 2 1
    12 14 3 1
    13 15 3 1
    14 16 5 1
    15 17 5 1
    16 18 6 2
    17 19 4 1
    18 19 8 1
    19 19 9 1
    20 20 19 1
@<TRIPOS>SUBSTRUCTURE
1     ****    1
@<TRIPOS>MOLECULE
ZINC00001241
15 15 1 0 0 
SMALL
USER_CHARGES


@<TRIPOS>ATOM
      1 C1          3.9960   -5.7630   -0.5110 C.ar    1     ****   -0.0180 
      2 C2          3.6790   -5.0300   -1.6550 C.ar    1     ****   -0.0870 
      3 C3          3.4140   -5.6730   -2.8640 C.ar    1     ****   -0.0100 
      4 C4          3.4670   -7.0670   -2.9240 C.ar    1     ****   -0.1410 
      5 C5          3.7840   -7.8160   -1.7840 C.ar    1     ****    0.2270 
      6 C6          4.0480   -7.1610   -0.5750 C.ar    1     ****   -0.2280 
      7 C7          4.3900   -7.8780    0.6750 C.2     1     ****    0.5790 
      8 O1          4.4710   -9.0950    0.7620 O.2     1     ****   -0.4950 
      9 O2          3.8360   -9.1810   -1.8430 O.3     1     ****   -0.4470 
     10 BR1         3.1020   -7.9150   -4.5810 Br      1     ****   -0.0670 
     11 BR2         3.6090   -3.1410   -1.5660 Br      1     ****   -0.0680 
     12 H1          3.6260   -9.4570   -2.7520 H       1     ****    0.4360 
     13 H2          4.2000   -5.2470    0.4250 H       1     ****    0.1550 
     14 H3          3.1680   -5.0930   -3.7500 H       1     ****    0.1650 
     15 H4          4.5760   -7.2430    1.5590 H       1     ****   -0.0020 
@<TRIPOS>BOND
     1  2 1 ar
     2  3 2 ar
     3  4 3 ar
     4  5 4 ar
     5  6 1 ar
     6  6 5 ar
     7  7 6 1
     8  8 7 2
     9  9 5 1
    10 10 4 1
    11 11 2 1
    12 12 9 1
    13 13 1 1
    14 14 3 1
    15 15 7 1
@<TRIPOS>SUBSTRUCTURE
1     ****    1
@<TRIPOS>MOLECULE
ZINC00001258
40 43 1 0 0 
SMALL
USER_CHARGES


@<TRIPOS>ATOM
      1 C1          1.7130    1.2530   -3.7540 C.3     1     ****   -0.0830 
      2 C2          3.0020    1.2690   -2.9040 C.3     1     ****   -0.1510 
      3 C3          3.3870   -0.1510   -2.4930 C.3     1     ****   -0.0560 
      4 C4          3.7580   -0.9970   -3.7330 C.3     1     ****   -0.0370 
      5 C5          4.3940   -0.2360   -4.8940 C.2     1     ****   -0.0550 
      6 C6          4.5920    1.1040   -4.8500 C.2     1     ****   -0.0990 
      7 C7          4.2340    1.8570   -3.5950 C.3     1     ****   -0.0290 
      8 C8          3.9470    3.3640   -3.5880 C.3     1     ****   -0.0700 
      9 C9          3.4080    3.5930   -2.1540 C.3     1     ****   -0.1890 
     10 C10         2.8130    2.2390   -1.7730 C.2     1     ****    0.5790 
     11 O1          2.2480    2.0030   -0.7170 O.2     1     ****   -0.5180 
     12 C11         5.2160    1.8730   -5.9820 C.3     1     ****   -0.0330 
     13 C12         6.1270    1.0140   -6.8580 C.3     1     ****   -0.0360 
     14 C13         5.5650   -0.3600   -7.1060 C.ar    1     ****   -0.0280 
     15 C14         4.7530   -0.9810   -6.1320 C.ar    1     ****   -0.0780 
     16 C15         4.3150   -2.2940   -6.3710 C.ar    1     ****   -0.0870 
     17 C16         4.6660   -2.9720   -7.5410 C.ar    1     ****   -0.1610 
     18 C17         5.4690   -2.3450   -8.4850 C.ar    1     ****    0.1290 
     19 C18         5.9270   -1.0490   -8.2740 C.ar    1     ****   -0.2150 
     20 O2          5.8010   -3.0380   -9.6150 O.3     1     ****   -0.4970 
     21 H1          6.3610   -2.4720  -10.1720 H       1     ****    0.4190 
     22 H2          1.3600    2.2660   -3.9760 H       1     ****    0.0360 
     23 H3          1.8230    0.7330   -4.7090 H       1     ****    0.0550 
     24 H4          0.9030    0.7600   -3.2020 H       1     ****    0.0460 
     25 H5          4.2440   -0.1250   -1.8050 H       1     ****    0.0480 
     26 H6          2.5770   -0.6390   -1.9380 H       1     ****    0.0580 
     27 H7          4.4210   -1.8090   -3.4120 H       1     ****    0.0550 
     28 H8          2.8290   -1.4620   -4.0900 H       1     ****    0.0490 
     29 H9          5.1620    1.7690   -2.9980 H       1     ****    0.0620 
     30 H10         4.8410    3.9680   -3.7720 H       1     ****    0.0500 
     31 H11         3.1970    3.6380   -4.3380 H       1     ****    0.0520 
     32 H12         4.2240    3.8260   -1.4640 H       1     ****    0.0750 
     33 H13         2.6450    4.3750   -2.1360 H       1     ****    0.0760 
     34 H14         4.4090    2.3030   -6.5890 H       1     ****    0.0550 
     35 H15         5.8120    2.7100   -5.6010 H       1     ****    0.0500 
     36 H16         6.2990    1.5380   -7.8060 H       1     ****    0.0510 
     37 H17         7.1020    0.8960   -6.3690 H       1     ****    0.0570 
     38 H18         3.6880   -2.8210   -5.6570 H       1     ****    0.1370 
     39 H19         4.3130   -3.9860   -7.7050 H       1     ****    0.1510 
     40 H20         6.5700   -0.5700   -9.0080 H       1     ****    0.1330 
@<TRIPOS>BOND
     1  2 1 1
     2  3 2 1
     3  4 3 1
     4  5 4 1
     5  6 5 2
     6  7 2 1
     7  7 6 1
     8  8 7 1
     9  9 8 1
    10 10 2 1
    11 10 9 1
    12 11 10 2
    13 12 6 1
    14 13 12 1
    15 14 13 1
    16 15 5 1
    17 15 14 ar
    18 16 15 ar
    19 17 16 ar
    20 18 17 ar
    21 19 14 ar
    22 19 18 ar
    23 20 18 1
    24 21 20 1
    25 22 1 1
    26 23 1 1
    27 24 1 1
    28 25 3 1
    29 26 3 1
    30 27 4 1
    31 28 4 1
    32 29 7 1
    33 30 8 1
    34 31 8 1
    35 32 9 1
    36 33 9 1
    37 34 12 1
    38 35 12 1
    39 36 13 1
    40 37 13 1
    41 38 16 1
    42 39 17 1
    43 40 19 1
@<TRIPOS>SUBSTRUCTURE
1     ****    1
@<TRIPOS>MOLECULE
ZINC00001364
38 41 1 0 0 
SMALL
USER_CHARGES


@<TRIPOS>ATOM
      1 C1         -6.6910    8.3870    2.3440 C.3     1     ****   -0.0820 
      2 C2         -6.6220    8.2910    3.8810 C.3     1     ****   -0.1510 
      3 C3         -7.9400    7.7730    4.4520 C.3     1     ****   -0.0560 
      4 C4         -8.2140    6.3180    4.0150 C.3     1     ****   -0.0380 
      5 C5         -6.9950    5.4260    3.7700 C.ar    1     ****   -0.0490 
      6 C6         -7.1670    4.0750    3.3470 C.ar    1     ****   -0.0590 
      7 C7         -8.4310    3.4620    3.1730 C.ar    1     ****   -0.0930 
      8 C8         -8.5550    2.1360    2.7560 C.ar    1     ****   -0.1400 
      9 C9         -7.4150    1.3910    2.5010 C.ar    1     ****    0.1300 
     10 C10        -6.1520    1.9550    2.6580 C.ar    1     ****   -0.2180 
     11 C11        -6.0160    3.2890    3.0770 C.ar    1     ****    0.0020 
     12 C12        -4.7400    3.8450    3.2280 C.ar    1     ****   -0.1310 
     13 C13        -4.5750    5.1640    3.6440 C.ar    1     ****   -0.1090 
     14 C14        -5.6880    5.9620    3.9070 C.ar    1     ****   -0.0730 
     15 C15        -5.5420    7.3640    4.4340 C.3     1     ****   -0.0240 
     16 C16        -4.2530    8.1740    4.2580 C.3     1     ****   -0.0710 
     17 C17        -4.6800    9.5900    4.7100 C.3     1     ****   -0.1880 
     18 C18        -6.1770    9.6200    4.4250 C.2     1     ****    0.5780 
     19 O1         -6.8950   10.5940    4.5960 O.2     1     ****   -0.5180 
     20 O2         -7.5660    0.0960    2.0940 O.3     1     ****   -0.4970 
     21 H1         -6.6850   -0.2920    1.9570 H       1     ****    0.4200 
     22 H2         -5.7730    8.8140    1.9240 H       1     ****    0.0380 
     23 H3         -6.8570    7.4260    1.8510 H       1     ****    0.0550 
     24 H4         -7.5080    9.0540    2.0440 H       1     ****    0.0460 
     25 H5         -7.9090    7.8140    5.5500 H       1     ****    0.0480 
     26 H6         -8.7830    8.4130    4.1620 H       1     ****    0.0590 
     27 H7         -8.8560    5.8520    4.7720 H       1     ****    0.0550 
     28 H8         -8.7840    6.3590    3.0770 H       1     ****    0.0530 
     29 H9         -9.3490    4.0140    3.3630 H       1     ****    0.1370 
     30 H10        -9.5410    1.6980    2.6340 H       1     ****    0.1520 
     31 H11        -5.2680    1.3550    2.4530 H       1     ****    0.1360 
     32 H12        -3.8500    3.2500    3.0290 H       1     ****    0.1330 
     33 H13        -3.5670    5.5510    3.7670 H       1     ****    0.1340 
     34 H14        -5.6090    7.2100    5.5280 H       1     ****    0.0630 
     35 H15        -3.4250    7.7950    4.8650 H       1     ****    0.0520 
     36 H16        -3.9220    8.1850    3.2130 H       1     ****    0.0530 
     37 H17        -4.5240    9.7190    5.7850 H       1     ****    0.0750 
     38 H18        -4.1570   10.3640    4.1450 H       1     ****    0.0770 
@<TRIPOS>BOND
     1  2 1 1
     2  3 2 1
     3  4 3 1
     4  5 4 1
     5  6 5 ar
     6  7 6 ar
     7  8 7 ar
     8  9 8 ar
     9 10 9 ar
    10 11 6 ar
    11 11 10 ar
    12 12 11 ar
    13 13 12 ar
    14 14 5 ar
    15 14 13 ar
    16 15 2 1
    17 15 14 1
    18 16 15 1
    19 17 16 1
    20 18 2 1
    21 18 17 1
    22 19 18 2
    23 20 9 1
    24 21 20 1
    25 22 1 1
    26 23 1 1
    27 24 1 1
    28 25 3 1
    29 26 3 1
    30 27 4 1
    31 28 4 1
    32 29 7 1
    33 30 8 1
    34 31 10 1
    35 32 12 1
    36 33 13 1
    37 34 15 1
    38 35 16 1
    39 36 16 1
    40 37 17 1
    41 38 17 1
@<TRIPOS>SUBSTRUCTURE
1     ****    1
@<TRIPOS>MOLECULE
ZINC00001365
40 43 1 0 0 
SMALL
USER_CHARGES


@<TRIPOS>ATOM
      1 C1         -6.2940    8.4330    2.4610 C.3     1     ****   -0.0820 
      2 C2         -6.4520    8.2310    3.9820 C.3     1     ****   -0.1480 
      3 C3         -7.8720    7.7530    4.3050 C.3     1     ****   -0.0580 
      4 C4         -8.1280    6.3260    3.7680 C.3     1     ****   -0.0700 
      5 C5         -7.0300    5.2900    4.1750 C.3     1     ****    0.0250 
      6 C6         -7.2520    3.9730    3.4370 C.ar    1     ****   -0.1020 
      7 C7         -8.4880    3.3100    3.5750 C.ar    1     ****   -0.0950 
      8 C8         -8.7370    2.0970    2.9340 C.ar    1     ****   -0.1560 
      9 C9         -7.7440    1.5200    2.1560 C.ar    1     ****    0.1260 
     10 C10        -6.5040    2.1370    2.0210 C.ar    1     ****   -0.2180 
     11 C11        -6.2470    3.3600    2.6650 C.ar    1     ****   -0.0290 
     12 C12        -4.8740    3.9620    2.5180 C.3     1     ****   -0.0030 
     13 C13        -4.6850    5.2700    3.2080 C.2     1     ****   -0.1650 
     14 C14        -5.6400    5.8700    3.9320 C.2     1     ****   -0.0910 
     15 C15        -5.4840    7.2170    4.5910 C.3     1     ****   -0.0320 
     16 C16        -4.1530    7.9750    4.6460 C.3     1     ****   -0.0710 
     17 C17        -4.5880    9.3660    5.1650 C.3     1     ****   -0.1890 
     18 C18        -6.0310    9.4930    4.6840 C.2     1     ****    0.5770 
     19 O1         -6.7250   10.4870    4.8360 O.2     1     ****   -0.5180 
     20 O2         -8.0140    0.3310    1.5390 O.3     1     ****   -0.4980 
     21 H1         -7.2270    0.0570    1.0370 H       1     ****    0.4180 
     22 H2         -5.3160    8.8540    2.2050 H       1     ****    0.0360 
     23 H3         -6.4120    7.5100    1.8870 H       1     ****    0.0540 
     24 H4         -7.0410    9.1470    2.0940 H       1     ****    0.0470 
     25 H5         -8.0330    7.7600    5.3910 H       1     ****    0.0460 
     26 H6         -8.6170    8.4410    3.8860 H       1     ****    0.0590 
     27 H7         -9.1090    6.0030    4.1380 H       1     ****    0.0440 
     28 H8         -8.2190    6.3630    2.6740 H       1     ****    0.0530 
     29 H9         -7.1520    5.1190    5.2610 H       1     ****    0.0610 
     30 H10        -9.2740    3.7340    4.1960 H       1     ****    0.1350 
     31 H11        -9.7010    1.6100    3.0510 H       1     ****    0.1510 
     32 H12        -5.7260    1.6710    1.4210 H       1     ****    0.1330 
     33 H13        -4.1340    3.2550    2.9110 H       1     ****    0.0610 
     34 H14        -4.6680    4.1060    1.4500 H       1     ****    0.0610 
     35 H15        -3.7170    5.7440    3.0780 H       1     ****    0.1260 
     36 H16        -5.6860    6.9900    5.6550 H       1     ****    0.0590 
     37 H17        -3.4270    7.5050    5.3170 H       1     ****    0.0530 
     38 H18        -3.6890    8.0670    3.6580 H       1     ****    0.0500 
     39 H19        -4.5780    9.3950    6.2590 H       1     ****    0.0750 
     40 H20        -3.9650   10.1600    4.7480 H       1     ****    0.0760 
@<TRIPOS>BOND
     1  2 1 1
     2  3 2 1
     3  4 3 1
     4  5 4 1
     5  6 5 1
     6  7 6 ar
     7  8 7 ar
     8  9 8 ar
     9 10 9 ar
    10 11 6 ar
    11 11 10 ar
    12 12 11 1
    13 13 12 1
    14 14 5 1
    15 14 13 2
    16 15 2 1
    17 15 14 1
    18 16 15 1
    19 17 16 1
    20 18 2 1
    21 18 17 1
    22 19 18 2
    23 20 9 1
    24 21 20 1
    25 22 1 1
    26 23 1 1
    27 24 1 1
    28 25 3 1
    29 26 3 1
    30 27 4 1
    31 28 4 1
    32 29 5 1
    33 30 7 1
    34 31 8 1
    35 32 10 1
    36 33 12 1
    37 34 12 1
    38 35 13 1
    39 36 15 1
    40 37 16 1
    41 38 16 1
    42 39 17 1
    43 40 17 1
@<TRIPOS>SUBSTRUCTURE
1     ****    1
@<TRIPOS>MOLECULE
ZINC00001423
18 19 1 0 0 
SMALL
USER_CHARGES


@<TRIPOS>ATOM
      1 C1          4.5140   -9.1790    0.8180 C.ar    1     ****   -0.1750 
      2 C2          3.4190   -9.7600    1.4500 C.ar    1     ****   -0.0640 
      3 C3          2.1470   -9.2270    1.2600 C.ar    1     ****   -0.2280 
      4 C4          1.9740   -8.1100    0.4350 C.ar    1     ****    0.1770 
      5 C5          3.0640   -7.5060   -0.2140 C.ar    1     ****   -0.1730 
      6 C6          4.3380   -8.0630   -0.0060 C.ar    1     ****   -0.0610 
      7 C7          2.8940   -6.3400   -1.0770 C.2     1     ****    0.5320 
      8 N1          1.8120   -5.6630   -1.4090 N.2     1     ****   -0.3240 
      9 N2          2.2190   -4.6490   -2.2540 N.2     1     ****   -0.3500 
     10 C8          3.5170   -4.7830   -2.3740 C.2     1     ****    0.4390 
     11 O1          4.0250   -5.8250   -1.6640 O.2     1     ****   -0.4060 
     12 O2          0.7110   -7.6050    0.2660 O.3     1     ****   -0.4620 
     13 H1          0.0830   -8.1390    0.7810 H       1     ****    0.4240 
     14 H2          5.5080   -9.5930    0.9640 H       1     ****    0.1420 
     15 H3          3.5560  -10.6270    2.0900 H       1     ****    0.1390 
     16 H4          1.2990   -9.6890    1.7590 H       1     ****    0.1410 
     17 H5          5.2190   -7.6390   -0.4820 H       1     ****    0.1520 
     18 H6          4.2110   -4.1890   -2.9480 H       1     ****    0.0960 
@<TRIPOS>BOND
     1  2 1 ar
     2  3 2 ar
     3  4 3 ar
     4  5 4 ar
     5  6 1 ar
     6  6 5 ar
     7  7 5 1
     8  8 7 2
     9  9 8 1
    10 10 9 2
    11 11 7 1
    12 11 10 1
    13 12 4 1
    14 13 12 1
    15 14 1 1
    16 15 2 1
    17 16 3 1
    18 17 6 1
    19 18 10 1
@<TRIPOS>SUBSTRUCTURE
1     ****    1
@<TRIPOS>MOLECULE
ZINC00001424
19 20 1 0 0 
SMALL
USER_CHARGES


@<TRIPOS>ATOM
      1 C1          4.9950   -9.7800   -0.3920 C.ar    1     ****   -0.1230 
      2 C2          5.1920   -8.7410   -1.2970 C.ar    1     ****   -0.1200 
      3 C3          4.2780   -7.6860   -1.3640 C.ar    1     ****   -0.1110 
      4 C4          3.1630   -7.6580   -0.5100 C.ar    1     ****    0.0060 
      5 C5          2.9600   -8.7170    0.3810 C.ar    1     ****   -0.1400 
      6 C6          3.8790   -9.7700    0.4410 C.ar    1     ****   -0.1210 
      7 N1          2.2500   -6.5760   -0.6070 N.pl3   1     ****   -0.0410 
      8 C7          1.2520   -6.1120    0.2480 C.2     1     ****    0.6020 
      9 N2          0.5600   -5.1900   -0.3910 N.2     1     ****   -0.4190 
     10 N3          1.1790   -4.9980   -1.5910 N.2     1     ****   -0.0320 
     11 N4          2.2300   -5.7910   -1.7150 N.2     1     ****   -0.1890 
     12 N5          1.1010   -6.4980    1.5270 N.pl3   1     ****   -0.8940 
     13 H1          1.7740   -7.0610    2.0350 H       1     ****    0.4120 
     14 H2          0.3540   -6.1120    2.0960 H       1     ****    0.4300 
     15 H3          5.7040  -10.6010   -0.3420 H       1     ****    0.1410 
     16 H4          6.0580   -8.7490   -1.9530 H       1     ****    0.1430 
     17 H5          4.4720   -6.8900   -2.0790 H       1     ****    0.1590 
     18 H6          2.0790   -8.7930    1.0080 H       1     ****    0.1550 
     19 H7          3.7130  -10.5930    1.1310 H       1     ****    0.1420 
@<TRIPOS>BOND
     1  2 1 ar
     2  3 2 ar
     3  4 3 ar
     4  5 4 ar
     5  6 1 ar
     6  6 5 ar
     7  7 4 1
     8  8 7 1
     9  9 8 2
    10 10 9 1
    11 11 7 1
    12 11 10 2
    13 12 8 1
    14 13 12 1
    15 14 12 1
    16 15 1 1
    17 16 2 1
    18 17 3 1
    19 18 5 1
    20 19 6 1
@<TRIPOS>SUBSTRUCTURE
1     ****    1
@<TRIPOS>MOLECULE
ZINC00001447
21 22 1 0 0 
SMALL
USER_CHARGES


@<TRIPOS>ATOM
      1 C1          5.0460   -4.0300    0.7960 C.3     1     ****    0.0800 
      2 N1          3.8370   -4.7240    0.3630 N.am    1     ****   -0.4200 
      3 C2          2.6470   -4.4540    1.0790 C.ar    1     ****    0.3890 
      4 C3          1.4710   -5.0680    0.7310 C.ar    1     ****    0.2160 
      5 C4          1.4310   -6.0130   -0.3900 C.2     1     ****    0.6220 
      6 O1          0.3630   -6.5470   -0.6780 O.2     1     ****   -0.5540 
      7 N2          2.6490   -6.2260   -1.0470 N.am    1     ****   -0.4900 
      8 C5          3.8780   -5.6120   -0.7160 C.2     1     ****    0.8120 
      9 O2          4.9160   -5.8480   -1.3420 O.2     1     ****   -0.6140 
     10 C6          2.6690   -7.1560   -2.1700 C.3     1     ****    0.0770 
     11 N3          0.3050   -4.8550    1.3720 N.ar    1     ****   -0.5530 
     12 C7          0.3780   -3.9880    2.3880 C.ar    1     ****    0.5170 
     13 N4          1.4890   -3.3470    2.7890 N.ar    1     ****   -0.2800 
     14 N5          2.6420   -3.5900    2.1170 N.ar    1     ****   -0.3000 
     15 H1          5.2640   -4.2980    1.8350 H       1     ****    0.0610 
     16 H2          5.9070   -4.3060    0.1810 H       1     ****    0.0910 
     17 H3          4.8930   -2.9500    0.7110 H       1     ****    0.0610 
     18 H4          1.6870   -7.5920   -2.3680 H       1     ****    0.0860 
     19 H5          3.0150   -6.6240   -3.0620 H       1     ****    0.0590 
     20 H6          3.3820   -7.9580   -1.9500 H       1     ****    0.0580 
     21 H7         -0.5330   -3.7830    2.9340 H       1     ****    0.0790 
@<TRIPOS>BOND
     1  2 1 1
     2  3 2 1
     3  4 3 ar
     4  5 4 1
     5  6 5 2
     6  7 5 1
     7  8 2 1
     8  8 7 1
     9  9 8 2
    10 10 7 1
    11 11 4 ar
    12 12 11 ar
    13 13 12 ar
    14 14 3 ar
    15 14 13 ar
    16 15 1 1
    17 16 1 1
    18 17 1 1
    19 18 10 1
    20 19 10 1
    21 20 10 1
    22 21 12 1
@<TRIPOS>SUBSTRUCTURE
1     ****    1
@<TRIPOS>MOLECULE
ZINC00001497
31 34 1 0 0 
SMALL
USER_CHARGES


@<TRIPOS>ATOM
      1 C1          7.4870   -9.6720    0.1740 C.3     1     ****   -0.0770 
      2 C2          7.0840   -8.3710    0.8080 C.2     1     ****    0.1590 
      3 C3          7.7760   -7.8650    1.8440 C.2     1     ****   -0.3180 
      4 C4          7.3450   -6.5740    2.4450 C.2     1     ****    0.5960 
      5 C5          6.1600   -5.9160    1.8550 C.ar    1     ****   -0.2110 
      6 C6          5.4990   -6.5240    0.7700 C.ar    1     ****    0.2080 
      7 N1          5.9810   -7.7440    0.2710 N.pl3   1     ****   -0.6110 
      8 C7          4.3760   -5.9100    0.2020 C.ar    1     ****   -0.2210 
      9 C8          3.8880   -4.6910    0.6940 C.ar    1     ****   -0.0040 
     10 C9          4.5450   -4.0820    1.7770 C.ar    1     ****    0.0160 
     11 C10         5.6600   -4.7020    2.3330 C.ar    1     ****    0.0030 
     12 N2          6.0450   -3.8580    3.3440 N.pl3   1     ****   -0.2350 
     13 C11         5.1810   -2.7940    3.3670 C.2     1     ****    0.3620 
     14 N3          4.2620   -2.9040    2.4290 N.2     1     ****   -0.5420 
     15 C12         5.2870   -1.7200    4.2990 C.2     1     ****    0.2190 
     16 C13         4.4810   -0.6000    4.4200 C.2     1     ****   -0.1950 
     17 C14         4.9920    0.1700    5.4910 C.2     1     ****   -0.2710 
     18 C15         6.0790   -0.5190    5.9670 C.2     1     ****    0.2590 
     19 O1          6.2680   -1.6600    5.2570 O.2     1     ****   -0.3660 
     20 O2          7.9530   -6.0860    3.3890 O.2     1     ****   -0.6030 
     21 H1          6.8320   -4.0010    3.9640 H       1     ****    0.3450 
     22 H2          5.5070   -8.1810   -0.5090 H       1     ****    0.4500 
     23 H3          8.3690  -10.1100    0.6530 H       1     ****    0.0700 
     24 H4          6.6720  -10.4000    0.2470 H       1     ****    0.0560 
     25 H5          7.7240   -9.5220   -0.8850 H       1     ****    0.0570 
     26 H6          8.6430   -8.3540    2.2700 H       1     ****    0.1620 
     27 H7          3.8640   -6.3780   -0.6360 H       1     ****    0.1350 
     28 H8          3.0160   -4.2270    0.2440 H       1     ****    0.1520 
     29 H9          3.6230   -0.3670    3.8030 H       1     ****    0.1780 
     30 H10         4.6130    1.1100    5.8680 H       1     ****    0.1660 
     31 H11         6.7880   -0.3410    6.7630 H       1     ****    0.0570 
@<TRIPOS>BOND
     1  2 1 1
     2  3 2 2
     3  4 3 1
     4  5 4 1
     5  6 5 ar
     6  7 2 1
     7  7 6 1
     8  8 6 ar
     9  9 8 ar
    10 10 9 ar
    11 11 5 ar
    12 11 10 ar
    13 12 11 1
    14 13 12 1
    15 14 10 1
    16 14 13 2
    17 15 13 1
    18 16 15 2
    19 17 16 1
    20 18 17 2
    21 19 15 1
    22 19 18 1
    23 20 4 2
    24 21 12 1
    25 22 7 1
    26 23 1 1
    27 24 1 1
    28 25 1 1
    29 26 3 1
    30 27 8 1
    31 28 9 1
    32 29 16 1
    33 30 17 1
    34 31 18 1
@<TRIPOS>SUBSTRUCTURE
1     ****    1
@<TRIPOS>MOLECULE
ZINC00001538
20 21 1 0 0 
SMALL
USER_CHARGES


@<TRIPOS>ATOM
      1 C1          3.2730   -4.1010   -4.9090 C.ar    1     ****   -0.1120 
      2 C2          2.6600   -5.3410   -4.7790 C.ar    1     ****   -0.1250 
      3 C3          2.2780   -5.8030   -3.5170 C.ar    1     ****   -0.0970 
      4 C4          2.5010   -5.0360   -2.3470 C.ar    1     ****   -0.1260 
      5 C5          3.1160   -3.7770   -2.5050 C.ar    1     ****   -0.1210 
      6 C6          3.4990   -3.3200   -3.7780 C.ar    1     ****   -0.1130 
      7 C7          3.3250   -3.0040   -1.3730 C.ar    1     ****    0.3370 
      8 N1          2.9620   -3.3960   -0.1410 N.ar    1     ****   -0.3040 
      9 N2          2.3660   -4.6110    0.0210 N.ar    1     ****   -0.3400 
     10 C8          2.1500   -5.4370   -1.0360 C.ar    1     ****    0.5570 
     11 N3          1.5140   -6.6830   -0.8310 N.pl3   1     ****   -0.5670 
     12 N4          1.0420   -7.0100    0.4320 N.3     1     ****   -0.6490 
     13 H1          1.8140   -7.4470   -1.4260 H       1     ****    0.3520 
     14 H2          0.4310   -7.8230    0.3600 H       1     ****    0.3700 
     15 H3          1.8260   -7.2910    1.0200 H       1     ****    0.3390 
     16 H4          3.5700   -3.7400   -5.8890 H       1     ****    0.1390 
     17 H5          2.4760   -5.9520   -5.6580 H       1     ****    0.1380 
     18 H6          1.7950   -6.7760   -3.4640 H       1     ****    0.1480 
     19 H7          3.9750   -2.3490   -3.8980 H       1     ****    0.1420 
     20 H8          3.7920   -2.0260   -1.4200 H       1     ****    0.0330 
@<TRIPOS>BOND
     1  2 1 ar
     2  3 2 ar
     3  4 3 ar
     4  5 4 ar
     5  6 1 ar
     6  6 5 ar
     7  7 5 ar
     8  8 7 ar
     9  9 8 ar
    10 10 4 ar
    11 10 9 ar
    12 11 10 1
    13 12 11 1
    14 13 11 1
    15 14 12 1
    16 15 12 1
    17 16 1 1
    18 17 2 1
    19 18 3 1
    20 19 6 1
    21 20 7 1
@<TRIPOS>SUBSTRUCTURE
1     ****    1
@<TRIPOS>MOLECULE
ZINC00001540
41 45 1 0 0 
SMALL
USER_CHARGES


@<TRIPOS>ATOM
      1 C1          2.3890   -0.1210  -11.1760 C.3     1     ****    0.0830 
      2 C2          1.0240    0.8280   -9.3310 C.3     1     ****    0.1170 
      3 C3          0.4490    0.6300   -7.9360 C.3     1     ****   -0.0880 
      4 C4          1.2550   -0.3530   -7.0360 C.3     1     ****   -0.0460 
      5 C5          0.5730   -1.6490   -7.0490 C.ar    1     ****   -0.1450 
      6 C6          0.8590   -2.7220   -7.8600 C.ar    1     ****   -0.1230 
      7 C7          0.0680   -3.8440   -7.6380 C.ar    1     ****   -0.0910 
      8 C8         -0.9280   -3.8310   -6.6180 C.ar    1     ****   -0.1190 
      9 C9         -1.1130   -2.7200   -5.7720 C.ar    1     ****    0.1650 
     10 C10        -0.3210   -1.6240   -5.9790 C.ar    1     ****    0.0190 
     11 O1         -0.1880   -0.4460   -5.2180 O.3     1     ****   -0.2770 
     12 C11         1.1680   -0.0760   -5.5700 C.3     1     ****    0.0460 
     13 C12         1.6290    1.3400   -5.3610 C.2     1     ****    0.5720 
     14 O2          1.0020    2.1810   -4.7280 O.2     1     ****   -0.4520 
     15 C13         3.0460    1.5950   -5.9440 C.3     1     ****   -0.1910 
     16 C14         3.3850    0.8870   -7.3060 C.3     1     ****   -0.0650 
     17 C15         2.6740   -0.4840   -7.4850 C.3     1     ****   -0.0710 
     18 C16         2.6300   -1.1180   -8.9040 C.3     1     ****    0.1500 
     19 C17         2.0700   -2.6100   -8.7680 C.3     1     ****   -0.0440 
     20 O3         -2.0260   -2.7800   -4.7680 O.3     1     ****   -0.4650 
     21 H1         -1.9980   -1.9330   -4.2890 H       1     ****    0.4500 
     22 H2          1.6710    0.3270  -11.8670 H       1     ****    0.1040 
     23 H3          3.2190    0.5630  -10.9750 H       1     ****    0.1030 
     24 H4          2.7470   -1.0740  -11.5750 H       1     ****    0.1020 
     25 H5          1.7340    1.6540   -9.3890 H       1     ****    0.0990 
     26 H6          0.2110    1.0840  -10.0230 H       1     ****    0.0990 
     27 H7          0.3740    1.6260   -7.4840 H       1     ****    0.1010 
     28 H8         -0.5950    0.2990   -8.0410 H       1     ****    0.0980 
     29 H9          0.2180   -4.7490   -8.2210 H       1     ****    0.1540 
     30 H10        -1.5310   -4.7250   -6.4670 H       1     ****    0.1760 
     31 H11         1.8500   -0.7270   -4.9810 H       1     ****    0.0910 
     32 H12         3.1870    2.6750   -6.0570 H       1     ****    0.0980 
     33 H13         3.7550    1.2440   -5.1850 H       1     ****    0.0880 
     34 H14         3.1770    1.5880   -8.1110 H       1     ****    0.0410 
     35 H15         4.4710    0.7320   -7.3550 H       1     ****    0.0710 
     36 H16         3.2610   -1.1390   -6.8140 H       1     ****    0.1030 
     37 H17         3.6420   -1.1640   -9.3400 H       1     ****    0.1050 
     38 H18         2.8660   -3.2280   -8.3330 H       1     ****    0.1030 
     39 H19         1.8350   -3.0180   -9.7580 H       1     ****    0.0690 
     40 N1          1.6690   -0.4020   -9.8750 N.4     1     ****   -0.6840 
     41 H20         0.9060   -1.0480  -10.1480 H       1     ****    0.4550 
@<TRIPOS>BOND
     1  3 2 1
     2  4 3 1
     3  5 4 1
     4  6 5 ar
     5  7 6 ar
     6  8 7 ar
     7  9 8 ar
     8 10 5 ar
     9 10 9 ar
    10 11 10 1
    11 12 4 1
    12 12 11 1
    13 13 12 1
    14 14 13 2
    15 15 13 1
    16 16 15 1
    17 17 4 1
    18 17 16 1
    19 18 17 1
    20 19 6 1
    21 19 18 1
    22 20 9 1
    23 21 20 1
    24 22 1 1
    25 23 1 1
    26 24 1 1
    27 25 2 1
    28 26 2 1
    29 27 3 1
    30 28 3 1
    31 29 7 1
    32 30 8 1
    33 31 12 1
    34 32 15 1
    35 33 15 1
    36 34 16 1
    37 35 16 1
    38 36 17 1
    39 37 18 1
    40 38 19 1
    41 39 19 1
    42 40 1 1
    43 40 2 1
    44 40 18 1
    45 41 40 1
@<TRIPOS>SUBSTRUCTURE
1     ****    1
@<TRIPOS>MOLECULE
ZINC00001541
14 14 1 0 0 
SMALL
USER_CHARGES


@<TRIPOS>ATOM
      1 C1          3.9720   -8.1600    1.6270 C.ar    1     ****   -0.1780 
      2 C2          5.1890   -7.6150    1.2190 C.ar    1     ****   -0.1190 
      3 C3          5.5870   -7.7340   -0.1110 C.ar    1     ****    0.0890 
      4 C4          4.7840   -8.3910   -1.0420 C.ar    1     ****   -0.1780 
      5 C5          3.5670   -8.9360   -0.6350 C.ar    1     ****   -0.1190 
      6 C6          3.1690   -8.8170    0.6960 C.ar    1     ****    0.0890 
      7 O1          1.9700   -9.3630    1.0610 O.3     1     ****   -0.4990 
      8 O2          6.7860   -7.1880   -0.4760 O.3     1     ****   -0.4990 
      9 H1          1.8320   -9.2000    2.0100 H       1     ****    0.4180 
     10 H2          6.9240   -7.3510   -1.4250 H       1     ****    0.4180 
     11 H3          3.6640   -8.0660    2.6640 H       1     ****    0.1370 
     12 H4          5.8210   -7.1010    1.9390 H       1     ****    0.1520 
     13 H5          5.0920   -8.4850   -2.0790 H       1     ****    0.1370 
     14 H6          2.9350   -9.4500   -1.3540 H       1     ****    0.1520 
@<TRIPOS>BOND
     1  2 1 ar
     2  3 2 ar
     3  4 3 ar
     4  5 4 ar
     5  6 1 ar
     6  6 5 ar
     7  7 6 1
     8  8 3 1
     9  9 7 1
    10 10 8 1
    11 11 1 1
    12 12 2 1
    13 13 4 1
    14 14 5 1
@<TRIPOS>SUBSTRUCTURE
1     ****    1
@<TRIPOS>MOLECULE
ZINC00001554
15 15 1 0 0 
SMALL
USER_CHARGES


@<TRIPOS>ATOM
      1 C1          6.4040   -8.8410   -0.4220 C.ar    1     ****   -0.2110 
      2 C2          6.6430   -8.4660   -1.7400 C.ar    1     ****   -0.1180 
      3 C3          5.5920   -8.4440   -2.6520 C.ar    1     ****   -0.2120 
      4 C4          4.3030   -8.7980   -2.2440 C.ar    1     ****    0.1760 
      5 C5          4.0340   -9.1800   -0.9180 C.ar    1     ****   -0.2130 
      6 C6          5.1140   -9.1940   -0.0150 C.ar    1     ****   -0.0690 
      7 C7          2.6530   -9.5690   -0.4390 C.2     1     ****    0.9160 
      8 O1          1.7110   -9.5400   -1.2940 O.co2   1     ****   -0.8580 
      9 O2          3.3350   -8.7460   -3.2130 O.3     1     ****   -0.5550 
     10 H1          2.4880   -9.0120   -2.8070 H       1     ****    0.4810 
     11 H2          7.2200   -8.8590    0.2950 H       1     ****    0.1050 
     12 H3          7.6450   -8.1920   -2.0560 H       1     ****    0.1000 
     13 H4          5.7800   -8.1520   -3.6820 H       1     ****    0.1210 
     14 H5          4.9630   -9.4810    1.0230 H       1     ****    0.1500 
     15 O3          2.5260   -9.8970    0.7820 O.co2   1     ****   -0.8130 
@<TRIPOS>BOND
     1  2 1 ar
     2  3 2 ar
     3  4 3 ar
     4  5 4 ar
     5  6 1 ar
     6  6 5 ar
     7  7 5 1
     8  8 7 1
     9  9 4 1
    10 10 9 1
    11 11 1 1
    12 12 2 1
    13 13 3 1
    14 14 6 1
    15 15 7 2
@<TRIPOS>SUBSTRUCTURE
1     ****    1
@<TRIPOS>MOLECULE
ZINC00001595
31 33 1 0 0 
SMALL
USER_CHARGES


@<TRIPOS>ATOM
      1 C1          6.2640   -8.8840    0.1740 C.ar    1     ****   -0.1280 
      2 C2          7.2950   -8.6540    1.0800 C.ar    1     ****   -0.1340 
      3 C3          7.4740   -7.3820    1.6210 C.ar    1     ****   -0.0860 
      4 C4          6.6140   -6.3340    1.2620 C.ar    1     ****   -0.1270 
      5 C5          5.5870   -6.5560    0.3420 C.ar    1     ****   -0.0920 
      6 C6          5.4140   -7.8400   -0.1950 C.ar    1     ****   -0.1200 
      7 C7          4.6800   -5.4370   -0.0570 C.3     1     ****    0.1740 
      8 O1          3.8710   -5.0860    1.0590 O.3     1     ****   -0.3300 
      9 C8          4.4290   -4.1670    1.9040 C.ar    1     ****    0.1290 
     10 C9          3.4930   -3.2800    2.4560 C.ar    1     ****   -0.1750 
     11 C10         3.8900   -2.2630    3.3200 C.ar    1     ****   -0.0690 
     12 C11         5.2370   -2.1160    3.6550 C.ar    1     ****   -0.0420 
     13 C12         6.1680   -3.0240    3.1290 C.ar    1     ****   -0.0760 
     14 C13         5.7810   -4.0630    2.2580 C.ar    1     ****   -0.2350 
     15 C14         6.8670   -4.9980    1.8390 C.2     1     ****    0.5990 
     16 O2          8.0410   -4.6720    2.0030 O.2     1     ****   -0.5430 
     17 C15         5.6750   -1.0310    4.6000 C.3     1     ****   -0.1800 
     18 C16         5.5800   -1.5330    6.0360 C.2     1     ****    0.9190 
     19 O3          4.4810   -1.3020    6.6150 O.co2   1     ****   -0.8440 
     20 H1          6.1220   -9.8740   -0.2480 H       1     ****    0.1240 
     21 H2          7.9590   -9.4650    1.3660 H       1     ****    0.1290 
     22 H3          8.2850   -7.2200    2.3280 H       1     ****    0.1490 
     23 H4          4.6160   -8.0370   -0.9060 H       1     ****    0.1280 
     24 H5          5.2350   -4.5810   -0.4630 H       1     ****    0.0520 
     25 H6          4.0000   -5.7600   -0.8550 H       1     ****    0.0650 
     26 H7          2.4390   -3.3730    2.2010 H       1     ****    0.1350 
     27 H8          3.1440   -1.5870    3.7300 H       1     ****    0.1750 
     28 H9          7.2100   -2.9200    3.4300 H       1     ****    0.1480 
     29 H10         6.7030   -0.7190    4.3760 H       1     ****    0.0390 
     30 H11         5.0520   -0.1370    4.4680 H       1     ****    0.0410 
     31 O4          6.6200   -2.1000    6.4780 O.co2   1     ****   -0.8260 
@<TRIPOS>BOND
     1  2 1 ar
     2  3 2 ar
     3  4 3 ar
     4  5 4 ar
     5  6 1 ar
     6  6 5 ar
     7  7 5 1
     8  8 7 1
     9  9 8 1
    10 10 9 ar
    11 11 10 ar
    12 12 11 ar
    13 13 12 ar
    14 14 9 ar
    15 14 13 ar
    16 15 4 1
    17 15 14 1
    18 16 15 2
    19 17 12 1
    20 18 17 1
    21 19 18 1
    22 20 1 1
    23 21 2 1
    24 22 3 1
    25 23 6 1
    26 24 7 1
    27 25 7 1
    28 26 10 1
    29 27 11 1
    30 28 13 1
    31 29 17 1
    32 30 17 1
    33 31 18 2
@<TRIPOS>SUBSTRUCTURE
1     ****    1
@<TRIPOS>MOLECULE
ZINC00001656
30 32 1 0 0 
SMALL
USER_CHARGES


@<TRIPOS>ATOM
      1 C1          6.3960   -5.5960    4.0700 C.3     1     ****   -0.1420 
      2 C2          5.5640   -5.9640    2.8590 C.2     1     ****    0.5140 
      3 N1          5.2390   -7.2130    2.7280 N.2     1     ****   -0.6260 
      4 C3          4.5140   -7.6030    1.5950 C.ar    1     ****    0.1870 
      5 C4          4.1480   -8.9460    1.4560 C.ar    1     ****   -0.1240 
      6 C5          3.4390   -9.3770    0.3330 C.ar    1     ****   -0.0940 
      7 C6          3.0910   -8.4670   -0.6640 C.ar    1     ****   -0.1550 
      8 C7          3.4500   -7.1260   -0.5390 C.ar    1     ****   -0.0590 
      9 C8          4.1590   -6.7010    0.5900 C.ar    1     ****   -0.1920 
     10 C9          4.5360   -5.2810    0.7520 C.2     1     ****    0.7170 
     11 O1          4.2290   -4.4770   -0.1250 O.2     1     ****   -0.6070 
     12 N2          5.2100   -4.9750    1.9440 N.am    1     ****   -0.3290 
     13 C10         5.5250   -3.6020    2.1710 C.ar    1     ****    0.0380 
     14 C11         6.5110   -2.9990    1.3750 C.ar    1     ****   -0.0990 
     15 C12         6.8520   -1.6610    1.5710 C.ar    1     ****   -0.1250 
     16 C13         6.2040   -0.9120    2.5520 C.ar    1     ****   -0.1120 
     17 C14         5.2040   -1.4940    3.3310 C.ar    1     ****   -0.1240 
     18 C15         4.8570   -2.8340    3.1390 C.ar    1     ****    0.0210 
     19 CL1         3.5400   -3.4680    4.0630 Cl      1     ****   -0.0780 
     20 H1          6.9380   -6.4790    4.4260 H       1     ****    0.0800 
     21 H2          7.1290   -4.8200    3.8430 H       1     ****    0.0620 
     22 H3          5.7420   -5.2570    4.8770 H       1     ****    0.0720 
     23 H4          4.4170   -9.6660    2.2250 H       1     ****    0.1530 
     24 H5          3.1610  -10.4220    0.2360 H       1     ****    0.1370 
     25 H6          2.5400   -8.8030   -1.5380 H       1     ****    0.1390 
     26 H7          3.1680   -6.4280   -1.3230 H       1     ****    0.1590 
     27 H8          7.0290   -3.5710    0.6090 H       1     ****    0.1520 
     28 H9          7.6230   -1.2020    0.9590 H       1     ****    0.1430 
     29 H10         6.4700    0.1310    2.7010 H       1     ****    0.1420 
     30 H11         4.6930   -0.8870    4.0740 H       1     ****    0.1520 
@<TRIPOS>BOND
     1  2 1 1
     2  3 2 2
     3  4 3 1
     4  5 4 ar
     5  6 5 ar
     6  7 6 ar
     7  8 7 ar
     8  9 4 ar
     9  9 8 ar
    10 10 9 1
    11 11 10 2
    12 12 2 1
    13 12 10 1
    14 13 12 1
    15 14 13 ar
    16 15 14 ar
    17 16 15 ar
    18 17 16 ar
    19 18 13 ar
    20 18 17 ar
    21 19 18 1
    22 20 1 1
    23 21 1 1
    24 22 1 1
    25 23 5 1
    26 24 6 1
    27 25 7 1
    28 26 8 1
    29 27 14 1
    30 28 15 1
    31 29 16 1
    32 30 17 1
@<TRIPOS>SUBSTRUCTURE
1     ****    1
@<TRIPOS>MOLECULE
ZINC00001659
34 36 1 0 0 
SMALL
USER_CHARGES


@<TRIPOS>ATOM
      1 C1          4.5720   -7.4890   -1.3320 C.3     1     ****    0.1730 
      2 N1          4.2940   -7.1170    0.0510 N.pl3   1     ****   -0.6470 
      3 C2          4.1460   -8.2290    1.0010 C.3     1     ****    0.1830 
      4 C3          3.8070   -7.8290    2.4310 C.3     1     ****    0.0990 
      5 N2          4.8680   -6.9930    2.9820 N.2     1     ****   -0.5810 
      6 C4          4.9580   -5.7760    2.5550 C.2     1     ****    0.5400 
      7 C5          4.0360   -5.1850    1.5400 C.ar    1     ****   -0.1950 
      8 C6          3.7650   -5.8610    0.3290 C.ar    1     ****    0.1550 
      9 C7          2.9430   -5.1890   -0.5980 C.ar    1     ****   -0.1770 
     10 C8          2.3920   -3.9320   -0.3270 C.ar    1     ****   -0.0920 
     11 C9          2.6540   -3.3110    0.8870 C.ar    1     ****   -0.0140 
     12 C10         3.4730   -3.9290    1.8250 C.ar    1     ****   -0.0790 
     13 CL1         1.9690   -1.7700    1.2290 Cl      1     ****   -0.0920 
     14 C11         6.0540   -4.9280    3.1100 C.ar    1     ****   -0.1400 
     15 C12         6.7350   -4.0140    2.2970 C.ar    1     ****   -0.1040 
     16 C13         7.7650   -3.2400    2.8330 C.ar    1     ****   -0.1390 
     17 C14         8.1220   -3.3810    4.1740 C.ar    1     ****   -0.1170 
     18 C15         7.4530   -4.2990    4.9820 C.ar    1     ****   -0.1420 
     19 C16         6.4220   -5.0770    4.4530 C.ar    1     ****   -0.0890 
     20 H1          5.2570   -8.3440   -1.3680 H       1     ****    0.0520 
     21 H2          3.6530   -7.7780   -1.8530 H       1     ****    0.0120 
     22 H3          5.0560   -6.6710   -1.8770 H       1     ****    0.0550 
     23 H4          3.3560   -8.8970    0.6350 H       1     ****    0.0240 
     24 H5          5.0780   -8.8080    1.0020 H       1     ****    0.0630 
     25 H6          2.8230   -7.3470    2.5070 H       1     ****    0.0470 
     26 H7          3.7400   -8.7360    3.0430 H       1     ****    0.0720 
     27 H8          2.6940   -5.6490   -1.5520 H       1     ****    0.1400 
     28 H9          1.7550   -3.4590   -1.0700 H       1     ****    0.1480 
     29 H10         3.6750   -3.4370    2.7740 H       1     ****    0.1590 
     30 H11         6.4890   -3.9010    1.2450 H       1     ****    0.1420 
     31 H12         8.2940   -2.5310    2.2030 H       1     ****    0.1330 
     32 H13         8.9250   -2.7780    4.5880 H       1     ****    0.1320 
     33 H14         7.7350   -4.4110    6.0250 H       1     ****    0.1330 
     34 H15         5.9100   -5.7860    5.0990 H       1     ****    0.1480 
@<TRIPOS>BOND
     1  2 1 1
     2  3 2 1
     3  4 3 1
     4  5 4 1
     5  6 5 2
     6  7 6 1
     7  8 2 1
     8  8 7 ar
     9  9 8 ar
    10 10 9 ar
    11 11 10 ar
    12 12 7 ar
    13 12 11 ar
    14 13 11 1
    15 14 6 1
    16 15 14 ar
    17 16 15 ar
    18 17 16 ar
    19 18 17 ar
    20 19 14 ar
    21 19 18 ar
    22 20 1 1
    23 21 1 1
    24 22 1 1
    25 23 3 1
    26 24 3 1
    27 25 4 1
    28 26 4 1
    29 27 9 1
    30 28 10 1
    31 29 12 1
    32 30 15 1
    33 31 16 1
    34 32 17 1
    35 33 18 1
    36 34 19 1
@<TRIPOS>SUBSTRUCTURE
1     ****    1
@<TRIPOS>MOLECULE
ZINC00001683
16 16 1 0 0 
SMALL
USER_CHARGES


@<TRIPOS>ATOM
      1 C1          6.2570   -9.6950    0.0520 C.ar    1     ****   -0.0910 
      2 C2          5.0660  -10.4130    0.0830 C.ar    1     ****   -0.1510 
      3 C3          3.8750   -9.8200   -0.3410 C.ar    1     ****   -0.0420 
      4 C4          3.9120   -8.5040   -0.8120 C.ar    1     ****   -0.2030 
      5 N1          5.0920   -7.7750   -0.8490 N.ar    1     ****    0.5330 
      6 C5          6.2570   -8.3830   -0.4120 C.ar    1     ****   -0.2160 
      7 O1          5.1040   -6.5770   -1.2750 O.3     1     ****   -0.5720 
      8 C6          2.5880  -10.5890   -0.3370 C.3     1     ****    0.1770 
      9 O2          2.4410  -11.2470   -1.5850 O.3     1     ****   -0.5890 
     10 H1          1.6010  -11.7360   -1.5530 H       1     ****    0.4050 
     11 H2          7.1830  -10.1560    0.3850 H       1     ****    0.1540 
     12 H3          5.0730  -11.4400    0.4390 H       1     ****    0.1500 
     13 H4          3.0490   -7.9630   -1.1750 H       1     ****    0.1880 
     14 H5          7.1380   -7.7600   -0.4690 H       1     ****    0.1860 
     15 H6          2.5820  -11.3350    0.4650 H       1     ****    0.0350 
     16 H7          1.7350   -9.9200   -0.1810 H       1     ****    0.0360 
@<TRIPOS>BOND
     1  2 1 ar
     2  3 2 ar
     3  4 3 ar
     4  5 4 ar
     5  6 1 ar
     6  6 5 ar
     7  7 5 1
     8  8 3 1
     9  9 8 1
    10 10 9 1
    11 11 1 1
    12 12 2 1
    13 13 4 1
    14 14 6 1
    15 15 8 1
    16 16 8 1
@<TRIPOS>SUBSTRUCTURE
1     ****    1
@<TRIPOS>MOLECULE
ZINC00001704
19 20 1 0 0 
SMALL
USER_CHARGES


@<TRIPOS>ATOM
      1 C1          1.0070   -5.2860   -1.6020 C.3     1     ****    0.0330 
      2 N1          1.9960   -6.1740   -0.9810 N.am    1     ****   -0.3450 
      3 C2          2.3770   -7.3820   -1.6190 C.2     1     ****    0.3470 
      4 S1          1.8650   -8.0340   -3.0680 S.2     1     ****   -0.4260 
      5 C3          3.3550   -8.1350   -0.8760 C.2     1     ****    0.2100 
      6 C4          3.7970   -7.6280    0.3190 C.2     1     ****    0.1100 
      7 N2          4.6990   -8.5360    0.7870 N.pl3   1     ****   -0.3210 
      8 C5          4.7640   -9.5460   -0.1380 C.2     1     ****    0.4010 
      9 N3          3.9600   -9.3330   -1.1590 N.2     1     ****   -0.5790 
     10 N4          3.4470   -6.4860    0.9380 N.2     1     ****   -0.6660 
     11 C6          2.5530   -5.7710    0.2860 C.2     1     ****    0.6740 
     12 N5          2.1460   -4.5900    0.8580 N.pl3   1     ****   -0.8860 
     13 H1          5.2200   -8.4750    1.6510 H       1     ****    0.3170 
     14 H2          2.5370   -4.3040    1.7490 H       1     ****    0.4320 
     15 H3          1.4660   -3.9690    0.4390 H       1     ****    0.4130 
     16 H4          0.6290   -5.6530   -2.5560 H       1     ****    0.1190 
     17 H5          0.1620   -5.1680   -0.9170 H       1     ****    0.0580 
     18 H6          1.4690   -4.3070   -1.7650 H       1     ****    0.0400 
     19 H7          5.4120  -10.4010   -0.0070 H       1     ****    0.0690 
@<TRIPOS>BOND
     1  2 1 1
     2  3 2 1
     3  4 3 2
     4  5 3 1
     5  6 5 ar
     6  7 6 1
     7  8 7 1
     8  9 5 1
     9  9 8 2
    10 10 6 1
    11 11 2 1
    12 11 10 2
    13 12 11 1
    14 13 7 1
    15 14 12 1
    16 15 12 1
    17 16 1 1
    18 17 1 1
    19 18 1 1
    20 19 8 1
@<TRIPOS>SUBSTRUCTURE
1     ****    1
@<TRIPOS>MOLECULE
ZINC00001732
36 39 1 0 0 
SMALL
USER_CHARGES


@<TRIPOS>ATOM
      1 C1         -0.6200    3.3750    5.1970 C.3     1     ****   -0.1270 
      2 C2         -1.6040    4.1760    4.4210 C.2     1     ****    0.4230 
      3 N1         -2.2890    5.1770    4.9430 N.2     1     ****   -0.6610 
      4 C3         -2.9630    5.7490    3.9060 C.2     1     ****    0.3210 
      5 C4         -2.7050    5.0900    2.7280 C.2     1     ****   -0.2210 
      6 N2         -1.8490    4.0550    3.0550 N.pl3   1     ****   -0.1430 
      7 C5         -1.3950    3.0710    2.1360 C.ar    1     ****    0.0380 
      8 C6         -1.2350    1.7480    2.5750 C.ar    1     ****   -0.1450 
      9 C7         -0.8630    0.7410    1.6820 C.ar    1     ****   -0.0980 
     10 C8         -0.6590    1.0480    0.3410 C.ar    1     ****    0.0030 
     11 C9         -0.8120    2.3550   -0.1150 C.ar    1     ****   -0.0830 
     12 C10        -1.1680    3.3810    0.7790 C.ar    1     ****   -0.1800 
     13 C11        -1.2000    4.7760    0.2300 C.2     1     ****    0.5270 
     14 N3         -2.1140    5.6540    0.4750 N.2     1     ****   -0.5580 
     15 C12        -3.2170    5.3080    1.3560 C.3     1     ****    0.1800 
     16 C13        -0.0790    5.2070   -0.6530 C.ar    1     ****   -0.1780 
     17 C14         1.2460    4.9580   -0.2790 C.ar    1     ****   -0.0840 
     18 C15         2.2900    5.3800   -1.1050 C.ar    1     ****   -0.1500 
     19 C16         2.0160    6.0530   -2.2970 C.ar    1     ****   -0.0920 
     20 C17         0.6970    6.3080   -2.6670 C.ar    1     ****   -0.1750 
     21 C18        -0.3440    5.8880   -1.8440 C.ar    1     ****    0.1650 
     22 F1         -1.6070    6.1280   -2.2290 F       1     ****   -0.1250 
     23 CL1        -0.2150   -0.1970   -0.7630 Cl      1     ****   -0.0770 
     24 H1         -0.2660    3.9530    6.0580 H       1     ****    0.0760 
     25 H2         -1.0830    2.4620    5.5840 H       1     ****    0.0560 
     26 H3          0.2590    3.1160    4.6000 H       1     ****    0.0520 
     27 H4         -3.6060    6.6040    4.0560 H       1     ****    0.0480 
     28 H5         -1.4480    1.4520    3.5970 H       1     ****    0.1540 
     29 H6         -0.7560   -0.2780    2.0430 H       1     ****    0.1560 
     30 H7         -0.6500    2.5720   -1.1690 H       1     ****    0.1640 
     31 H8         -3.7710    4.4360    0.9870 H       1     ****    0.0650 
     32 H9         -3.9300    6.1410    1.3550 H       1     ****    0.0910 
     33 H10         1.4830    4.4510    0.6530 H       1     ****    0.1440 
     34 H11         3.3200    5.1880   -0.8160 H       1     ****    0.1410 
     35 H12         2.8320    6.3790   -2.9350 H       1     ****    0.1400 
     36 H13         0.4800    6.8310   -3.5940 H       1     ****    0.1520 
@<TRIPOS>BOND
     1  2 1 1
     2  3 2 2
     3  4 3 1
     4  5 4 2
     5  6 2 1
     6  6 5 1
     7  7 6 1
     8  8 7 ar
     9  9 8 ar
    10 10 9 ar
    11 11 10 ar
    12 12 7 ar
    13 12 11 ar
    14 13 12 1
    15 14 13 2
    16 15 5 1
    17 15 14 1
    18 16 13 1
    19 17 16 ar
    20 18 17 ar
    21 19 18 ar
    22 20 19 ar
    23 21 16 ar
    24 21 20 ar
    25 22 21 1
    26 23 10 1
    27 24 1 1
    28 25 1 1
    29 26 1 1
    30 27 4 1
    31 28 8 1
    32 29 9 1
    33 30 11 1
    34 31 15 1
    35 32 15 1
    36 33 17 1
    37 34 18 1
    38 35 19 1
    39 36 20 1
@<TRIPOS>SUBSTRUCTURE
1     ****    1
@<TRIPOS>MOLECULE
ZINC00001742
28 29 1 0 0 
SMALL
USER_CHARGES


@<TRIPOS>ATOM
      1 C1          3.7900   -5.2590   -1.4480 C.3     1     ****   -0.1410 
      2 C2          3.1740   -6.4430   -0.7620 C.ar    1     ****    0.3170 
      3 C3          1.8720   -6.4270   -0.2410 C.ar    1     ****    0.4800 
      4 N1          1.4140   -7.5140    0.4350 N.ar    1     ****   -0.6700 
      5 C4          2.2250   -8.5840    0.5420 C.ar    1     ****    0.2920 
      6 C5          3.4850   -8.5950    0.0000 C.ar    1     ****    0.2710 
      7 N2          3.9790   -7.5320   -0.6550 N.ar    1     ****   -0.6340 
      8 N3          1.0450   -5.3020   -0.3840 N.pl3   1     ****   -0.7180 
      9 C6          0.4850   -5.1070   -1.7270 C.3     1     ****    0.1740 
     10 C7         -0.0580   -3.6850   -1.8560 C.3     1     ****   -0.0780 
     11 C8         -1.0510   -3.3660   -0.7410 C.3     1     ****   -0.0790 
     12 C9         -0.4280   -3.6280    0.6280 C.3     1     ****   -0.0800 
     13 C10         0.1210   -5.0510    0.7270 C.3     1     ****    0.1760 
     14 H1          4.8820   -5.3350   -1.4320 H       1     ****    0.0600 
     15 H2          3.4730   -5.2150   -2.4940 H       1     ****    0.0480 
     16 H3          3.5230   -4.3250   -0.9450 H       1     ****    0.0670 
     17 H4          1.8230   -9.4340    1.0780 H       1     ****    0.0310 
     18 H5          4.1380   -9.4550    0.0800 H       1     ****    0.0330 
     19 H6          1.2290   -5.2660   -2.5130 H       1     ****    0.0520 
     20 H7         -0.3220   -5.8320   -1.8980 H       1     ****    0.0280 
     21 H8          0.7740   -2.9710   -1.8130 H       1     ****    0.0520 
     22 H9         -0.5420   -3.5590   -2.8310 H       1     ****    0.0450 
     23 H10        -1.3670   -2.3190   -0.8120 H       1     ****    0.0430 
     24 H11        -1.9500   -3.9840   -0.8610 H       1     ****    0.0400 
     25 H12         0.3860   -2.9110    0.7950 H       1     ****    0.0510 
     26 H13        -1.1720   -3.4610    1.4140 H       1     ****    0.0460 
     27 H14        -0.7050   -5.7720    0.7070 H       1     ****    0.0370 
     28 H15         0.6370   -5.1550    1.6890 H       1     ****    0.0580 
@<TRIPOS>BOND
     1  2 1 1
     2  3 2 ar
     3  4 3 ar
     4  5 4 ar
     5  6 5 ar
     6  7 2 ar
     7  7 6 ar
     8  8 3 1
     9  9 8 1
    10 10 9 1
    11 11 10 1
    12 12 11 1
    13 13 8 1
    14 13 12 1
    15 14 1 1
    16 15 1 1
    17 16 1 1
    18 17 5 1
    19 18 6 1
    20 19 9 1
    21 20 9 1
    22 21 10 1
    23 22 10 1
    24 23 11 1
    25 24 11 1
    26 25 12 1
    27 26 12 1
    28 27 13 1
    29 28 13 1
@<TRIPOS>SUBSTRUCTURE
1     ****    1
@<TRIPOS>MOLECULE
ZINC00001797
26 27 1 0 0 
SMALL
USER_CHARGES


@<TRIPOS>ATOM
      1 C1          4.8530   -7.4760   -0.7350 C.ar    1     ****   -0.2510 
      2 C2          4.5610   -6.3210   -0.0180 C.ar    1     ****   -0.0530 
      3 C3          3.3410   -6.2300    0.6460 C.ar    1     ****   -0.2530 
      4 C4          2.4690   -7.3090    0.5980 C.ar    1     ****    0.4230 
      5 N1          2.7260   -8.4420   -0.0920 N.ar    1     ****   -0.6650 
      6 C5          3.9120   -8.4950   -0.7430 C.ar    1     ****    0.4090 
      7 C6          3.0240   -5.0380    1.4420 C.2     1     ****    0.6780 
      8 O1          3.7390   -4.8270    2.4200 O.2     1     ****   -0.5920 
      9 N2          1.9470   -4.2440    1.0490 N.am    1     ****   -0.4700 
     10 C7          1.1480   -4.4180   -0.1710 C.3     1     ****    0.0580 
     11 C8          0.9670   -3.0800   -0.8830 C.3     1     ****    0.1070 
     12 O2          0.4300   -2.1000    0.0090 O.3     1     ****   -0.4100 
     13 C9          1.3150   -1.8730    1.1110 C.3     1     ****    0.1050 
     14 C10         1.4970   -3.1540    1.9140 C.3     1     ****    0.0520 
     15 H1          5.7900   -7.5790   -1.2690 H       1     ****    0.1500 
     16 H2          5.2790   -5.5070    0.0160 H       1     ****    0.1540 
     17 H3          1.5190   -7.2990    1.1230 H       1     ****    0.0330 
     18 H4          4.0950   -9.4150   -1.2890 H       1     ****    0.0270 
     19 H5          1.6020   -5.1350   -0.8570 H       1     ****    0.0660 
     20 H6          0.1750   -4.8100    0.1490 H       1     ****    0.0560 
     21 H7          1.9190   -2.7150   -1.2880 H       1     ****    0.0370 
     22 H8          0.2690   -3.1920   -1.7190 H       1     ****    0.0760 
     23 H9          2.2740   -1.4980    0.7330 H       1     ****    0.0400 
     24 H10         0.8750   -1.0930    1.7400 H       1     ****    0.0770 
     25 H11         0.5360   -3.4720    2.3360 H       1     ****    0.0540 
     26 H12         2.1930   -2.9920    2.7420 H       1     ****    0.0920 
@<TRIPOS>BOND
     1  2 1 ar
     2  3 2 ar
     3  4 3 ar
     4  5 4 ar
     5  6 1 ar
     6  6 5 ar
     7  7 3 1
     8  8 7 2
     9  9 7 1
    10 10 9 1
    11 11 10 1
    12 12 11 1
    13 13 12 1
    14 14 9 1
    15 14 13 1
    16 15 1 1
    17 16 2 1
    18 17 4 1
    19 18 6 1
    20 19 10 1
    21 20 10 1
    22 21 11 1
    23 22 11 1
    24 23 13 1
    25 24 13 1
    26 25 14 1
    27 26 14 1
@<TRIPOS>SUBSTRUCTURE
1     ****    1
@<TRIPOS>MOLECULE
ZINC00001798
27 28 1 0 0 
SMALL
USER_CHARGES


@<TRIPOS>ATOM
      1 C1          2.0440   -1.0760    1.5030 C.3     1     ****    0.0870 
      2 C2          3.1780    0.7900    2.7330 C.3     1     ****    0.1100 
      3 C3          4.5050    0.5680    3.4450 C.3     1     ****   -0.1030 
      4 C4          4.7100   -0.9350    3.3980 C.3     1     ****   -0.0960 
      5 C5          3.2960   -1.4380    3.6900 C.3     1     ****    0.2110 
      6 C6          3.0280   -2.9150    3.5090 C.ar    1     ****   -0.2940 
      7 C7          3.8590   -3.7820    2.7960 C.ar    1     ****   -0.0560 
      8 C8          3.5330   -5.1320    2.6800 C.ar    1     ****   -0.2350 
      9 C9          2.3730   -5.5790    3.2880 C.ar    1     ****    0.4440 
     10 N1          1.5390   -4.7840    3.9890 N.ar    1     ****   -0.6380 
     11 C10         1.8870   -3.4800    4.0830 C.ar    1     ****    0.4170 
     12 H1          1.3860   -1.9360    1.6420 H       1     ****    0.1090 
     13 H2          1.4960   -0.2950    0.9690 H       1     ****    0.0980 
     14 H3          2.9580   -1.3430    0.9650 H       1     ****    0.1020 
     15 H4          3.3240    1.0080    1.6700 H       1     ****    0.1080 
     16 H5          2.5750    1.5750    3.1970 H       1     ****    0.1020 
     17 H6          5.3230    1.1180    2.9720 H       1     ****    0.0960 
     18 H7          4.4320    0.9090    4.4850 H       1     ****    0.0920 
     19 H8          5.0610   -1.2270    2.4020 H       1     ****    0.0800 
     20 H9          5.4410   -1.2790    4.1360 H       1     ****    0.1080 
     21 H10         3.1280   -1.2480    4.7690 H       1     ****    0.1020 
     22 H11         4.7690   -3.4320    2.3180 H       1     ****    0.1490 
     23 H12         4.1710   -5.8130    2.1280 H       1     ****    0.1730 
     24 H13         2.0770   -6.6210    3.2250 H       1     ****    0.0550 
     25 H14         1.1910   -2.8750    4.6570 H       1     ****    0.0260 
     26 N2          2.4150   -0.5220    2.8650 N.4     1     ****   -0.6950 
     27 H15         1.5020   -0.3650    3.3240 H       1     ****    0.4470 
@<TRIPOS>BOND
     1  3 2 1
     2  4 3 1
     3  5 4 1
     4  6 5 1
     5  7 6 ar
     6  8 7 ar
     7  9 8 ar
     8 10 9 ar
     9 11 6 ar
    10 11 10 ar
    11 12 1 1
    12 13 1 1
    13 14 1 1
    14 15 2 1
    15 16 2 1
    16 17 3 1
    17 18 3 1
    18 19 4 1
    19 20 4 1
    20 21 5 1
    21 22 7 1
    22 23 8 1
    23 24 9 1
    24 25 11 1
    25 26 1 1
    26 26 2 1
    27 26 5 1
    28 27 26 1
@<TRIPOS>SUBSTRUCTURE
1     ****    1
@<TRIPOS>MOLECULE
ZINC00001799
15 15 1 0 0 
SMALL
USER_CHARGES


@<TRIPOS>ATOM
      1 C1          4.5730   -8.6990   -1.7140 C.ar    1     ****   -0.2500 
      2 C2          4.6230   -7.6160   -0.8420 C.ar    1     ****   -0.0730 
      3 C3          4.5090   -7.8210    0.5350 C.ar    1     ****   -0.2040 
      4 C4          4.3290   -9.1300    0.9690 C.ar    1     ****    0.4150 
      5 N1          4.2780  -10.2060    0.1500 N.ar    1     ****   -0.6670 
      6 C5          4.4020   -9.9620   -1.1730 C.ar    1     ****    0.3990 
      7 C6          4.5360   -6.6780    1.5000 C.3     1     ****    0.1820 
      8 O1          3.2070   -6.2380    1.7330 O.3     1     ****   -0.5920 
      9 H1          3.2580   -5.4960    2.3590 H       1     ****    0.4010 
     10 H2          4.6630   -8.5580   -2.7850 H       1     ****    0.1440 
     11 H3          4.7490   -6.6130   -1.2420 H       1     ****    0.1400 
     12 H4          4.2170   -9.3600    2.0240 H       1     ****    0.0250 
     13 H5          4.3570  -10.8390   -1.8100 H       1     ****    0.0220 
     14 H6          4.9850   -6.9830    2.4510 H       1     ****    0.0300 
     15 H7          5.1240   -5.8440    1.1020 H       1     ****    0.0280 
@<TRIPOS>BOND
     1  2 1 ar
     2  3 2 ar
     3  4 3 ar
     4  5 4 ar
     5  6 1 ar
     6  6 5 ar
     7  7 3 1
     8  8 7 1
     9  9 8 1
    10 10 1 1
    11 11 2 1
    12 12 4 1
    13 13 6 1
    14 14 7 1
    15 15 7 1
@<TRIPOS>SUBSTRUCTURE
1     ****    1
@<TRIPOS>MOLECULE
ZINC00001826
30 32 1 0 0 
SMALL
USER_CHARGES


@<TRIPOS>ATOM
      1 C1          4.4040  -10.2970   -0.2160 C.2     1     ****   -0.0430 
      2 C2          5.1680   -9.8660   -1.2860 C.2     1     ****   -0.1230 
      3 C3          5.6610   -8.5700   -1.2890 C.3     1     ****   -0.0750 
      4 N1          5.4150   -7.7090   -0.2690 N.pl3   1     ****    0.0340 
      5 C4          5.9120   -6.4500   -0.3050 C.2     1     ****   -0.0280 
      6 C5          5.6800   -5.5390    0.7190 C.2     1     ****   -0.1810 
      7 C6          4.9250   -5.9050    1.8270 C.2     1     ****    0.2850 
      8 C7          4.4150   -7.2070    1.8540 C.2     1     ****   -0.2660 
      9 C8          4.6590   -8.1150    0.8060 C.2     1     ****    0.1020 
     10 C9          4.1480   -9.4230    0.8320 C.2     1     ****   -0.1490 
     11 N2          4.6190   -5.0330    2.8880 N.pl3   1     ****   -0.5920 
     12 C10         4.5740   -3.6280    2.9810 C.ar    1     ****    0.0920 
     13 C11         4.3920   -2.7870    1.8760 C.ar    1     ****   -0.1390 
     14 C12         4.3890   -1.3960    2.0210 C.ar    1     ****   -0.0980 
     15 C13         4.5730   -0.8180    3.2770 C.ar    1     ****    0.0270 
     16 C14         4.7580   -1.6380    4.3910 C.ar    1     ****    0.0330 
     17 C15         4.7590   -3.0310    4.2400 C.ar    1     ****   -0.1230 
     18 CL1         4.9950   -0.9970    5.9790 Cl      1     ****   -0.0220 
     19 CL2         4.5590    0.9050    3.3880 Cl      1     ****   -0.0180 
     20 H1          4.3900   -5.5060    3.7570 H       1     ****    0.4700 
     21 H2          4.0080  -11.3080   -0.1950 H       1     ****    0.1830 
     22 H3          5.3790  -10.5350   -2.1150 H       1     ****    0.1910 
     23 H4          6.2630   -8.2040   -2.1150 H       1     ****    0.1950 
     24 H5          6.5100   -6.1750   -1.1690 H       1     ****    0.2000 
     25 H6          6.1310   -4.5540    0.6430 H       1     ****    0.1980 
     26 H7          3.8100   -7.5250    2.7030 H       1     ****    0.1830 
     27 H8          3.5470   -9.7660    1.6710 H       1     ****    0.1840 
     28 H9          4.2160   -3.1960    0.8850 H       1     ****    0.1480 
     29 H10         4.2350   -0.7760    1.1410 H       1     ****    0.1700 
     30 H11         4.9130   -3.6640    5.1120 H       1     ****    0.1650 
@<TRIPOS>BOND
     1  2 1 2
     2  3 2 1
     3  4 3 1
     4  5 4 1
     5  6 5 2
     6  7 6 1
     7  8 7 2
     8  9 4 1
     9  9 8 1
    10 10 1 1
    11 10 9 2
    12 11 7 1
    13 12 11 1
    14 13 12 ar
    15 14 13 ar
    16 15 14 ar
    17 16 15 ar
    18 17 12 ar
    19 17 16 ar
    20 18 16 1
    21 19 15 1
    22 20 11 1
    23 21 1 1
    24 22 2 1
    25 23 3 1
    26 24 5 1
    27 25 6 1
    28 26 8 1
    29 27 10 1
    30 28 13 1
    31 29 14 1
    32 30 17 1
@<TRIPOS>SUBSTRUCTURE
1     ****    1
@<TRIPOS>MOLECULE
ZINC00001840
46 49 1 0 0 
SMALL
USER_CHARGES


@<TRIPOS>ATOM
      1 C1          0.0200    4.0160    1.2710 C.3     1     ****   -0.0860 
      2 C2         -1.1320    3.9410    0.2360 C.3     1     ****   -0.0170 
      3 C3         -2.0440    2.7310    0.5840 C.3     1     ****   -0.0690 
      4 C4         -2.8370    2.9330    1.8690 C.3     1     ****   -0.1820 
      5 C5         -3.5890    4.2410    1.8580 C.2     1     ****    0.5670 
      6 O1         -4.5940    4.4110    2.5460 O.2     1     ****   -0.5330 
      7 C6         -3.0650    5.3630    1.0410 C.2     1     ****   -0.2470 
      8 C7         -1.9460    5.2340    0.3100 C.2     1     ****   -0.0060 
      9 C8         -1.4570    6.3640   -0.4640 C.2     1     ****   -0.1480 
     10 C9         -0.4600    6.2630   -1.3540 C.2     1     ****   -0.1340 
     11 C10         0.2230    4.9560   -1.6940 C.3     1     ****   -0.0210 
     12 C11        -0.6200    3.7550   -1.2460 C.3     1     ****   -0.0520 
     13 C12         0.1980    2.4490   -1.4380 C.3     1     ****   -0.0740 
     14 C13         1.1500    2.5060   -2.6420 C.3     1     ****   -0.0740 
     15 C14         0.6360    3.4090   -3.7720 C.3     1     ****    0.1610 
     16 C15         0.6010    4.8660   -3.2130 C.3     1     ****   -0.0830 
     17 C16        -0.1610    5.6940   -4.2430 C.3     1     ****   -0.0740 
     18 C17         0.4500    5.4880   -5.6380 C.3     1     ****   -0.1670 
     19 C18         1.4790    4.3770   -5.8210 C.2     1     ****    0.7130 
     20 O2          2.1990    4.3470   -6.8170 O.2     1     ****   -0.5850 
     21 O3          1.5700    3.4110   -4.8660 O.3     1     ****   -0.4130 
     22 C19        -0.6910    2.8210   -4.3190 C.3     1     ****   -0.1120 
     23 H1          0.5470    3.0620    1.3690 H       1     ****    0.0410 
     24 H2          0.7590    4.7830    1.0250 H       1     ****    0.0440 
     25 H3         -0.3580    4.2680    2.2690 H       1     ****    0.0440 
     26 H4         -2.7570    2.5640   -0.2360 H       1     ****    0.0500 
     27 H5         -1.4550    1.8110    0.6760 H       1     ****    0.0510 
     28 H6         -3.5640    2.1190    1.9680 H       1     ****    0.0760 
     29 H7         -2.1860    2.9140    2.7490 H       1     ****    0.0730 
     30 H8         -3.6310    6.2880    1.0800 H       1     ****    0.1500 
     31 H9         -1.9090    7.3370   -0.2910 H       1     ****    0.1370 
     32 H10        -0.0990    7.1740   -1.8250 H       1     ****    0.1320 
     33 H11         1.1560    4.9850   -1.1010 H       1     ****    0.0680 
     34 H12        -1.5010    3.6640   -1.9020 H       1     ****    0.0570 
     35 H13         0.7970    2.2000   -0.5580 H       1     ****    0.0510 
     36 H14        -0.5000    1.6140   -1.5750 H       1     ****    0.0450 
     37 H15         2.1340    2.8690   -2.3130 H       1     ****    0.0580 
     38 H16         1.3410    1.4910   -3.0130 H       1     ****    0.0650 
     39 H17         1.6140    5.3230   -3.2320 H       1     ****    0.0640 
     40 H18        -1.2270    5.4360   -4.2500 H       1     ****    0.0580 
     41 H19        -0.1170    6.7640   -4.0100 H       1     ****    0.0540 
     42 H20        -0.3520    5.3280   -6.3670 H       1     ****    0.0820 
     43 H21         0.9590    6.4200   -5.9170 H       1     ****    0.0840 
     44 H22        -0.5330    1.7700   -4.5950 H       1     ****    0.0570 
     45 H23        -1.5370    2.8450   -3.6360 H       1     ****    0.0510 
     46 H24        -1.0120    3.3010   -5.2480 H       1     ****    0.0420 
@<TRIPOS>BOND
     1  2 1 1
     2  3 2 1
     3  4 3 1
     4  5 4 1
     5  6 5 2
     6  7 5 1
     7  8 2 1
     8  8 7 2
     9  9 8 1
    10 10 9 2
    11 11 10 1
    12 12 2 1
    13 12 11 1
    14 13 12 1
    15 14 13 1
    16 15 14 1
    17 16 11 1
    18 16 15 1
    19 17 16 1
    20 18 17 1
    21 19 18 1
    22 20 19 2
    23 21 15 1
    24 21 19 1
    25 22 15 1
    26 23 1 1
    27 24 1 1
    28 25 1 1
    29 26 3 1
    30 27 3 1
    31 28 4 1
    32 29 4 1
    33 30 7 1
    34 31 9 1
    35 32 10 1
    36 33 11 1
    37 34 12 1
    38 35 13 1
    39 36 13 1
    40 37 14 1
    41 38 14 1
    42 39 16 1
    43 40 17 1
    44 41 17 1
    45 42 18 1
    46 43 18 1
    47 44 22 1
    48 45 22 1
    49 46 22 1
@<TRIPOS>SUBSTRUCTURE
1     ****    1
@<TRIPOS>MOLECULE
ZINC00001844
40 43 1 0 0 
SMALL
USER_CHARGES


@<TRIPOS>ATOM
      1 C1         -0.5360   -8.1900   -3.5040 C.3     1     ****   -0.0910 
      2 C2         -1.5740   -7.3050   -2.7820 C.3     1     ****   -0.1320 
      3 C3         -1.1390   -7.0930   -1.3310 C.3     1     ****   -0.0560 
      4 C4          0.1360   -6.2140   -1.2540 C.3     1     ****   -0.0750 
      5 C5          0.0450   -4.8840   -2.0740 C.3     1     ****   -0.0090 
      6 C6          1.3730   -4.1380   -2.1550 C.ar    1     ****   -0.1050 
      7 C7          2.3210   -4.2030   -1.1170 C.ar    1     ****   -0.0940 
      8 C8          3.5080   -3.4700   -1.1710 C.ar    1     ****   -0.1570 
      9 C9          3.7570   -2.6450   -2.2580 C.ar    1     ****    0.1270 
     10 C10         2.8310   -2.5390   -3.2900 C.ar    1     ****   -0.2170 
     11 C11         1.6300   -3.2690   -3.2420 C.ar    1     ****   -0.0330 
     12 C12         0.6770   -3.1230   -4.4080 C.3     1     ****   -0.0370 
     13 C13        -0.6810   -3.7930   -4.2060 C.3     1     ****   -0.0740 
     14 C14        -0.4840   -5.1460   -3.5110 C.3     1     ****   -0.0430 
     15 C15        -1.7900   -5.9190   -3.3670 C.3     1     ****   -0.1020 
     16 C16        -2.5740   -6.2250   -4.6070 C.3     1     ****    0.1300 
     17 O1         -3.4560   -7.2920   -4.1300 O.3     1     ****   -0.4210 
     18 C17        -2.9300   -7.8980   -2.9920 C.2     1     ****    0.7180 
     19 O2         -3.4730   -8.7770   -2.3470 O.2     1     ****   -0.5580 
     20 O3          4.9280   -1.9420   -2.2820 O.3     1     ****   -0.4960 
     21 H1          4.9560   -1.4150   -3.0990 H       1     ****    0.4190 
     22 H2         -0.8150   -8.3820   -4.5460 H       1     ****    0.0450 
     23 H3          0.4730   -7.7710   -3.5090 H       1     ****    0.0540 
     24 H4         -0.4760   -9.1720   -3.0190 H       1     ****    0.0560 
     25 H5         -1.9420   -6.6130   -0.7580 H       1     ****    0.0530 
     26 H6         -0.9510   -8.0540   -0.8360 H       1     ****    0.0620 
     27 H7          0.3080   -5.9870   -0.1950 H       1     ****    0.0470 
     28 H8          1.0030   -6.7990   -1.5860 H       1     ****    0.0510 
     29 H9         -0.6820   -4.2670   -1.5130 H       1     ****    0.0580 
     30 H10         2.1520   -4.8190   -0.2390 H       1     ****    0.1360 
     31 H11         4.2250   -3.5440   -0.3590 H       1     ****    0.1520 
     32 H12         3.0320   -1.8880   -4.1370 H       1     ****    0.1330 
     33 H13         0.5170   -2.0600   -4.6250 H       1     ****    0.0550 
     34 H14         1.1600   -3.5690   -5.2880 H       1     ****    0.0530 
     35 H15        -1.3270   -3.1470   -3.5980 H       1     ****    0.0490 
     36 H16        -1.1710   -3.9080   -5.1800 H       1     ****    0.0450 
     37 H17         0.2410   -5.6960   -4.1310 H       1     ****    0.0660 
     38 H18        -2.4030   -5.3070   -2.6760 H       1     ****    0.0660 
     39 H19        -3.1940   -5.3850   -4.9340 H       1     ****    0.0720 
     40 H20        -1.9850   -6.6000   -5.4490 H       1     ****    0.0560 
@<TRIPOS>BOND
     1  2 1 1
     2  3 2 1
     3  4 3 1
     4  5 4 1
     5  6 5 1
     6  7 6 ar
     7  8 7 ar
     8  9 8 ar
     9 10 9 ar
    10 11 6 ar
    11 11 10 ar
    12 12 11 1
    13 13 12 1
    14 14 5 1
    15 14 13 1
    16 15 2 1
    17 15 14 1
    18 16 15 1
    19 17 16 1
    20 18 2 1
    21 18 17 1
    22 19 18 2
    23 20 9 1
    24 21 20 1
    25 22 1 1
    26 23 1 1
    27 24 1 1
    28 25 3 1
    29 26 3 1
    30 27 4 1
    31 28 4 1
    32 29 5 1
    33 30 7 1
    34 31 8 1
    35 32 10 1
    36 33 12 1
    37 34 12 1
    38 35 13 1
    39 36 13 1
    40 37 14 1
    41 38 15 1
    42 39 16 1
    43 40 16 1
@<TRIPOS>SUBSTRUCTURE
1     ****    1
@<TRIPOS>MOLECULE
ZINC00001852
19 20 1 0 0 
SMALL
USER_CHARGES


@<TRIPOS>ATOM
      1 C1          1.8660   -7.0520   -2.3540 C.3     1     ****   -0.0430 
      2 C2          2.5870   -6.8770   -1.0490 C.2     1     ****   -0.1300 
      3 C3          2.2870   -5.9750   -0.0960 C.2     1     ****   -0.0610 
      4 S1          3.1980   -5.9200    1.3720 S.3     1     ****   -0.0410 
      5 S2          4.6330   -7.1910    0.6980 S.3     1     ****   -0.0110 
      6 C4          3.7650   -7.7490   -0.7320 C.2     1     ****    0.2050 
      7 S3          4.2980   -9.0920   -1.5840 S.2     1     ****   -0.2270 
      8 C5          1.1700   -5.0330   -0.1780 C.ar    1     ****    0.3380 
      9 C6          1.3660   -3.6830   -0.4210 C.ar    1     ****    0.3100 
     10 N1          0.3410   -2.8080   -0.5110 N.ar    1     ****   -0.6240 
     11 C7         -0.8930   -3.3270   -0.3520 C.ar    1     ****    0.2940 
     12 C8         -1.0970   -4.6680   -0.1150 C.ar    1     ****    0.2810 
     13 N2         -0.0750   -5.5440   -0.0260 N.ar    1     ****   -0.6000 
     14 H1          1.0960   -6.2930   -2.5200 H       1     ****    0.0510 
     15 H2          2.5650   -6.9760   -3.1930 H       1     ****    0.0640 
     16 H3          1.3730   -8.0280   -2.3930 H       1     ****    0.0670 
     17 H4          2.3530   -3.2550   -0.5550 H       1     ****    0.0460 
     18 H5         -1.7160   -2.6270   -0.4230 H       1     ****    0.0410 
     19 H6         -2.0900   -5.0820    0.0110 H       1     ****    0.0420 
@<TRIPOS>BOND
     1  2 1 1
     2  3 2 2
     3  4 3 1
     4  5 4 1
     5  6 2 1
     6  6 5 1
     7  7 6 2
     8  8 3 1
     9  9 8 ar
    10 10 9 ar
    11 11 10 ar
    12 12 11 ar
    13 13 8 ar
    14 13 12 ar
    15 14 1 1
    16 15 1 1
    17 16 1 1
    18 17 9 1
    19 18 11 1
    20 19 12 1
@<TRIPOS>SUBSTRUCTURE
1     ****    1
@<TRIPOS>MOLECULE
ZINC00001891
35 37 1 0 0 
SMALL
USER_CHARGES


@<TRIPOS>ATOM
      1 C1          4.6020   -6.5870   -0.9450 C.ar    1     ****   -0.1080 
      2 C2          4.2070   -5.7420    0.0900 C.ar    1     ****   -0.1210 
      3 C3          2.8530   -5.4890    0.3060 C.ar    1     ****   -0.0770 
      4 C4          1.8900   -6.0840   -0.5190 C.ar    1     ****   -0.1390 
      5 C5          2.2810   -6.9280   -1.5540 C.ar    1     ****   -0.1230 
      6 C6          3.6430   -7.1800   -1.7670 C.ar    1     ****   -0.0880 
      7 C7          1.2770   -7.5610   -2.4300 C.2     1     ****    0.5790 
      8 O1          1.6480   -8.3010   -3.3350 O.2     1     ****   -0.5160 
      9 C8         -0.1750   -7.2790   -2.1860 C.2     1     ****   -0.1760 
     10 C9         -0.5280   -6.4590   -1.1790 C.2     1     ****    0.0490 
     11 C10         0.4660   -5.8120   -0.2860 C.2     1     ****    0.5560 
     12 O2          0.0980   -5.0720    0.6190 O.2     1     ****   -0.5260 
     13 O3         -1.8540   -6.1690   -0.9150 O.3     1     ****   -0.4810 
     14 C11        -1.1610   -7.9660   -3.1290 C.3     1     ****   -0.0170 
     15 C12        -2.0890   -8.9560   -2.3990 C.3     1     ****   -0.0720 
     16 C13        -3.0330   -9.6590   -3.3740 C.3     1     ****   -0.0750 
     17 C14        -3.8280   -8.6600   -4.2090 C.3     1     ****   -0.0770 
     18 C15        -2.9130   -7.6830   -4.9410 C.3     1     ****   -0.0750 
     19 C16        -1.9680   -6.9650   -3.9770 C.3     1     ****   -0.0720 
     20 H1         -1.8680   -5.5630   -0.1520 H       1     ****    0.4420 
     21 H2          5.6570   -6.7840   -1.1120 H       1     ****    0.1440 
     22 H3          4.9550   -5.2810    0.7300 H       1     ****    0.1440 
     23 H4          2.5650   -4.8270    1.1180 H       1     ****    0.1600 
     24 H5          3.9750   -7.8350   -2.5680 H       1     ****    0.1640 
     25 H6         -0.5940   -8.5710   -3.8480 H       1     ****    0.0790 
     26 H7         -1.4920   -9.7090   -1.8700 H       1     ****    0.0400 
     27 H8         -2.6930   -8.4420   -1.6420 H       1     ****    0.0560 
     28 H9         -2.4530  -10.3110   -4.0390 H       1     ****    0.0400 
     29 H10        -3.7220  -10.3040   -2.8170 H       1     ****    0.0390 
     30 H11        -4.4480   -9.1970   -4.9350 H       1     ****    0.0370 
     31 H12        -4.5110   -8.1010   -3.5570 H       1     ****    0.0410 
     32 H13        -2.3260   -8.2250   -5.6920 H       1     ****    0.0400 
     33 H14        -3.5170   -6.9450   -5.4810 H       1     ****    0.0390 
     34 H15        -2.5620   -6.3000   -3.3400 H       1     ****    0.0560 
     35 H16        -1.2850   -6.3260   -4.5520 H       1     ****    0.0400 
@<TRIPOS>BOND
     1  2 1 ar
     2  3 2 ar
     3  4 3 ar
     4  5 4 ar
     5  6 1 ar
     6  6 5 ar
     7  7 5 1
     8  8 7 2
     9  9 7 1
    10 10 9 2
    11 11 4 1
    12 11 10 1
    13 12 11 2
    14 13 10 1
    15 14 9 1
    16 15 14 1
    17 16 15 1
    18 17 16 1
    19 18 17 1
    20 19 14 1
    21 19 18 1
    22 20 13 1
    23 21 1 1
    24 22 2 1
    25 23 3 1
    26 24 6 1
    27 25 14 1
    28 26 15 1
    29 27 15 1
    30 28 16 1
    31 29 16 1
    32 30 17 1
    33 31 17 1
    34 32 18 1
    35 33 18 1
    36 34 19 1
    37 35 19 1
@<TRIPOS>SUBSTRUCTURE
1     ****    1
@<TRIPOS>MOLECULE
ZINC00001911
44 47 1 0 0 
SMALL
USER_CHARGES


@<TRIPOS>ATOM
      1 C1          7.7000   -9.8220   -0.4270 C.3     1     ****    0.0840 
      2 C2          5.4630   -9.2510    0.5370 C.3     1     ****    0.0700 
      3 C3          4.6310   -9.3400    1.8120 C.3     1     ****    0.1640 
      4 N1          5.3180   -8.6270    2.8970 N.pl3   1     ****   -0.6820 
      5 C4          6.6370   -9.1980    3.2090 C.3     1     ****    0.1540 
      6 C5          7.5260   -9.1180    1.9670 C.3     1     ****    0.0690 
      7 C6          4.9440   -7.3230    3.2620 C.2     1     ****    0.6450 
      8 N2          4.2440   -6.5990    2.4230 N.2     1     ****   -0.6430 
      9 C7          3.8170   -5.2790    2.6410 C.ar    1     ****    0.1340 
     10 C8          2.5180   -4.9440    2.2370 C.ar    1     ****   -0.1020 
     11 C9          2.0450   -3.6360    2.3510 C.ar    1     ****   -0.1200 
     12 C10         2.8730   -2.6400    2.8620 C.ar    1     ****   -0.1110 
     13 C11         4.1710   -2.9530    3.2590 C.ar    1     ****   -0.1130 
     14 C12         4.6530   -4.2660    3.1480 C.ar    1     ****   -0.0900 
     15 C13         6.0370   -4.6100    3.6320 C.3     1     ****    0.0030 
     16 C14         5.9390   -5.5650    4.7900 C.ar    1     ****   -0.0490 
     17 C15         5.3640   -6.8350    4.6200 C.ar    1     ****   -0.1920 
     18 C16         5.1900   -7.6840    5.7210 C.ar    1     ****   -0.0870 
     19 C17         5.6090   -7.2790    6.9880 C.ar    1     ****   -0.1340 
     20 C18         6.1970   -6.0290    7.1610 C.ar    1     ****   -0.0930 
     21 C19         6.3580   -5.1740    6.0690 C.ar    1     ****   -0.1280 
     22 H1          8.6500  -10.3020   -0.1790 H       1     ****    0.1010 
     23 H2          7.1810  -10.3970   -1.1980 H       1     ****    0.1040 
     24 H3          7.8540   -8.7880   -0.7460 H       1     ****    0.1080 
     25 H4          5.5970   -8.2170    0.2020 H       1     ****    0.1300 
     26 H5          5.0160   -9.8480   -0.2640 H       1     ****    0.1020 
     27 H6          3.6270   -8.9370    1.6390 H       1     ****    0.1270 
     28 H7          4.4950  -10.3890    2.1020 H       1     ****    0.0730 
     29 H8          7.1370   -8.6770    4.0300 H       1     ****    0.1210 
     30 H9          6.5140  -10.2410    3.5230 H       1     ****    0.0810 
     31 H10         8.4810   -9.6230    2.1400 H       1     ****    0.1040 
     32 H11         7.7030   -8.0810    1.6610 H       1     ****    0.1120 
     33 H12         1.8650   -5.7080    1.8230 H       1     ****    0.1430 
     34 H13         1.0340   -3.3940    2.0370 H       1     ****    0.1480 
     35 H14         2.5070   -1.6220    2.9520 H       1     ****    0.1490 
     36 H15         4.8040   -2.1660    3.6640 H       1     ****    0.1430 
     37 H16         6.6250   -5.0540    2.8190 H       1     ****    0.0440 
     38 H17         6.5780   -3.7020    3.9270 H       1     ****    0.0720 
     39 H18         4.7290   -8.6620    5.6050 H       1     ****    0.1490 
     40 H19         5.4760   -7.9390    7.8400 H       1     ****    0.1500 
     41 H20         6.5220   -5.7140    8.1480 H       1     ****    0.1500 
     42 H21         6.7980   -4.1930    6.2290 H       1     ****    0.1470 
     43 N3          6.8440   -9.8220    0.8080 N.4     1     ****   -0.6790 
     44 H22         6.7190  -10.8070    1.0800 H       1     ****    0.4440 
@<TRIPOS>BOND
     1  3 2 1
     2  4 3 1
     3  5 4 1
     4  6 5 1
     5  7 4 1
     6  8 7 2
     7  9 8 1
     8 10 9 ar
     9 11 10 ar
    10 12 11 ar
    11 13 12 ar
    12 14 9 ar
    13 14 13 ar
    14 15 14 1
    15 16 15 1
    16 17 7 1
    17 17 16 ar
    18 18 17 ar
    19 19 18 ar
    20 20 19 ar
    21 21 16 ar
    22 21 20 ar
    23 22 1 1
    24 23 1 1
    25 24 1 1
    26 25 2 1
    27 26 2 1
    28 27 3 1
    29 28 3 1
    30 29 5 1
    31 30 5 1
    32 31 6 1
    33 32 6 1
    34 33 10 1
    35 34 11 1
    36 35 12 1
    37 36 13 1
    38 37 15 1
    39 38 15 1
    40 39 18 1
    41 40 19 1
    42 41 20 1
    43 42 21 1
    44 43 1 1
    45 43 2 1
    46 43 6 1
    47 44 43 1
@<TRIPOS>SUBSTRUCTURE
1     ****    1
@<TRIPOS>MOLECULE
ZINC00001925
27 29 1 0 0 
SMALL
USER_CHARGES


@<TRIPOS>ATOM
      1 C1         -4.3360    1.2320   -5.2460 C.ar    1     ****   -0.1280 
      2 C2         -3.6810    0.5410   -4.2300 C.ar    1     ****   -0.1270 
      3 C3         -3.0780    1.2410   -3.1820 C.ar    1     ****   -0.1470 
      4 C4         -3.1290    2.6420   -3.1400 C.ar    1     ****   -0.0230 
      5 C5         -3.7840    3.3260   -4.1730 C.ar    1     ****   -0.1030 
      6 C6         -4.3860    2.6230   -5.2190 C.ar    1     ****   -0.1260 
      7 C7         -2.4930    3.3840   -2.0530 C.2     1     ****   -0.2660 
      8 C8         -1.5670    4.5420   -2.2350 C.2     1     ****    0.6050 
      9 O1         -1.1930    5.0280   -3.2830 O.2     1     ****   -0.5000 
     10 C9         -1.1740    4.9890   -0.9020 C.ar    1     ****   -0.1660 
     11 C10        -0.3310    6.0190   -0.5310 C.ar    1     ****   -0.0640 
     12 C11        -0.1370    6.2180    0.8360 C.ar    1     ****   -0.1280 
     13 C12        -0.7810    5.3960    1.7790 C.ar    1     ****   -0.1170 
     14 C13        -1.6290    4.3600    1.3700 C.ar    1     ****   -0.0840 
     15 C14        -1.8170    4.1670    0.0130 C.ar    1     ****   -0.0640 
     16 C15        -2.6170    3.2050   -0.7230 C.2     1     ****    0.2060 
     17 O2         -3.3780    2.3070   -0.0370 O.3     1     ****   -0.4680 
     18 H1         -4.8040    0.6860   -6.0610 H       1     ****    0.1320 
     19 H2         -3.6350   -0.5450   -4.2530 H       1     ****    0.1320 
     20 H3         -2.5600    0.6790   -2.4090 H       1     ****    0.1280 
     21 H4         -3.8390    4.4120   -4.1730 H       1     ****    0.1480 
     22 H5         -4.8940    3.1640   -6.0130 H       1     ****    0.1350 
     23 H6         -3.9030    1.8000   -0.6780 H       1     ****    0.4420 
     24 H7          0.1610    6.6470   -1.2650 H       1     ****    0.1540 
     25 H8          0.5170    7.0160    1.1780 H       1     ****    0.1390 
     26 H9         -0.6170    5.5690    2.8400 H       1     ****    0.1390 
     27 H10        -2.1220    3.7320    2.1040 H       1     ****    0.1520 
@<TRIPOS>BOND
     1  2 1 ar
     2  3 2 ar
     3  4 3 ar
     4  5 4 ar
     5  6 1 ar
     6  6 5 ar
     7  7 4 1
     8  8 7 1
     9  9 8 2
    10 10 8 1
    11 11 10 ar
    12 12 11 ar
    13 13 12 ar
    14 14 13 ar
    15 15 10 ar
    16 15 14 ar
    17 16 7 2
    18 16 15 1
    19 17 16 1
    20 18 1 1
    21 19 2 1
    22 20 3 1
    23 21 5 1
    24 22 6 1
    25 23 17 1
    26 24 11 1
    27 25 12 1
    28 26 13 1
    29 27 14 1
@<TRIPOS>SUBSTRUCTURE
1     ****    1
@<TRIPOS>MOLECULE
ZINC00001936
22 23 1 0 0 
SMALL
USER_CHARGES


@<TRIPOS>ATOM
      1 C1          2.7890   -2.9060    2.8830 C.3     1     ****   -0.0490 
      2 C2          2.8210   -4.0070    1.8610 C.2     1     ****   -0.1810 
      3 C3          3.4250   -5.1880    2.0580 C.2     1     ****    0.0420 
      4 C4          3.4340   -6.2500    1.0210 C.2     1     ****    0.5580 
      5 O1          3.9960   -7.3200    1.2320 O.2     1     ****   -0.5260 
      6 C5          2.7520   -5.9790   -0.2550 C.ar    1     ****   -0.1380 
      7 C6          2.7400   -6.9590   -1.2540 C.ar    1     ****   -0.0780 
      8 C7          2.0960   -6.7100   -2.4660 C.ar    1     ****   -0.1210 
      9 C8          1.4640   -5.4870   -2.6830 C.ar    1     ****   -0.1080 
     10 C9          1.4750   -4.5090   -1.6880 C.ar    1     ****   -0.0880 
     11 C10         2.1200   -4.7550   -0.4690 C.ar    1     ****   -0.1240 
     12 C11         2.1250   -3.7140    0.5750 C.2     1     ****    0.5780 
     13 O2          1.5690   -2.6380    0.3830 O.2     1     ****   -0.5150 
     14 O3          4.0750   -5.4740    3.2440 O.3     1     ****   -0.4830 
     15 H1          4.4340   -6.3760    3.1610 H       1     ****    0.4440 
     16 H2          3.3130   -3.1690    3.8070 H       1     ****    0.0610 
     17 H3          3.2640   -2.0030    2.4840 H       1     ****    0.0580 
     18 H4          1.7550   -2.6650    3.1500 H       1     ****    0.0580 
     19 H5          3.2270   -7.9200   -1.1050 H       1     ****    0.1600 
     20 H6          2.0870   -7.4710   -3.2420 H       1     ****    0.1440 
     21 H7          0.9630   -5.2950   -3.6270 H       1     ****    0.1440 
     22 H8          0.9760   -3.5620   -1.8780 H       1     ****    0.1640 
@<TRIPOS>BOND
     1  2 1 1
     2  3 2 2
     3  4 3 1
     4  5 4 2
     5  6 4 1
     6  7 6 ar
     7  8 7 ar
     8  9 8 ar
     9 10 9 ar
    10 11 6 ar
    11 11 10 ar
    12 12 2 1
    13 12 11 1
    14 13 12 2
    15 14 3 1
    16 15 14 1
    17 16 1 1
    18 17 1 1
    19 18 1 1
    20 19 7 1
    21 20 8 1
    22 21 9 1
    23 22 10 1
@<TRIPOS>SUBSTRUCTURE
1     ****    1
@<TRIPOS>MOLECULE
ZINC00001944
17 17 1 0 0 
SMALL
USER_CHARGES


@<TRIPOS>ATOM
      1 C1          5.6000   -9.2130   -0.7030 C.ar    1     ****   -0.2330 
      2 C2          5.2320   -7.9410   -0.2750 C.ar    1     ****   -0.0560 
      3 C3          3.9370   -7.7080    0.1940 C.ar    1     ****   -0.3310 
      4 C4          3.0670   -8.7940    0.2200 C.ar    1     ****    0.4400 
      5 N1          3.3920  -10.0420   -0.1860 N.ar    1     ****   -0.6380 
      6 C5          4.6520  -10.2200   -0.6400 C.ar    1     ****    0.4570 
      7 C6          3.5170   -6.3600    0.6870 C.3     1     ****    0.1840 
      8 H1          3.5560   -5.2030    2.4260 H       1     ****    0.4590 
      9 H2          3.3960   -6.8260    2.7250 H       1     ****    0.4600 
     10 H3          6.6000   -9.4100   -1.0730 H       1     ****    0.1760 
     11 H4          5.9610   -7.1360   -0.3110 H       1     ****    0.1480 
     12 H5          2.0480   -8.6910    0.5820 H       1     ****    0.0320 
     13 H6          4.8890  -11.2290   -0.9620 H       1     ****    0.0590 
     14 H7          4.0060   -5.5620    0.1180 H       1     ****    0.1150 
     15 H8          2.4340   -6.2220    0.5950 H       1     ****    0.1160 
     16 N2          3.8550   -6.1370    2.1150 N.4     1     ****   -0.8460 
     17 H9          4.8680   -6.2060    2.2780 H       1     ****    0.4590 
@<TRIPOS>BOND
     1  2 1 ar
     2  3 2 ar
     3  4 3 ar
     4  5 4 ar
     5  6 1 ar
     6  6 5 ar
     7  7 3 1
     8 10 1 1
     9 11 2 1
    10 12 4 1
    11 13 6 1
    12 14 7 1
    13 15 7 1
    14 16 7 1
    15 16 8 1
    16 16 9 1
    17 17 16 1
@<TRIPOS>SUBSTRUCTURE
1     ****    1
@<TRIPOS>MOLECULE
ZINC00001947
26 28 1 0 0 
SMALL
USER_CHARGES


@<TRIPOS>ATOM
      1 C1          5.2700   -8.2840    0.1640 C.ar    1     ****   -0.1380 
      2 C2          4.4450   -9.3610    0.4680 C.ar    1     ****   -0.0930 
      3 C3          3.1930   -9.1350    1.0360 C.ar    1     ****   -0.1360 
      4 C4          2.7570   -7.8290    1.2950 C.ar    1     ****    0.0580 
      5 C5          3.5730   -6.7280    0.9780 C.ar    1     ****   -0.1450 
      6 C6          4.8390   -6.9810    0.4200 C.ar    1     ****   -0.0750 
      7 C7          3.2030   -5.3360    1.2030 C.2     1     ****    0.5640 
      8 N1          3.9610   -4.3100    1.5160 N.2     1     ****   -0.6740 
      9 C8          3.0670   -3.2610    1.5320 C.2     1     ****    0.5780 
     10 N2          1.8100   -3.6170    1.2210 N.2     1     ****   -0.3550 
     11 O1          1.9020   -4.9870    0.9900 O.2     1     ****   -0.1160 
     12 C9          3.4730   -1.8990    1.8520 C.ar    1     ****   -0.0910 
     13 C10         2.5480   -0.8510    1.8580 C.ar    1     ****   -0.2130 
     14 C11         2.9960    0.4240    2.1720 C.ar    1     ****    0.3860 
     15 N3          4.2770    0.7240    2.4740 N.ar    1     ****   -0.6510 
     16 C12         5.1510   -0.3040    2.4620 C.ar    1     ****    0.3840 
     17 C13         4.8060   -1.6140    2.1620 C.ar    1     ****   -0.2070 
     18 CL1         1.2120   -7.6650    2.0600 Cl      1     ****   -0.0590 
     19 H1          6.2500   -8.4560   -0.2740 H       1     ****    0.1460 
     20 H2          4.7790  -10.3760    0.2710 H       1     ****    0.1450 
     21 H3          2.5660   -9.9890    1.2810 H       1     ****    0.1550 
     22 H4          5.5060   -6.1580    0.1670 H       1     ****    0.1570 
     23 H5          1.4990   -1.0060    1.6270 H       1     ****    0.1610 
     24 H6          2.3090    1.2650    2.1870 H       1     ****    0.0270 
     25 H7          6.1750   -0.0430    2.7080 H       1     ****    0.0270 
     26 H8          5.5710   -2.3850    2.1750 H       1     ****    0.1640 
@<TRIPOS>BOND
     1  2 1 ar
     2  3 2 ar
     3  4 3 ar
     4  5 4 ar
     5  6 1 ar
     6  6 5 ar
     7  7 5 1
     8  8 7 2
     9  9 8 1
    10 10 9 2
    11 11 7 1
    12 11 10 1
    13 12 9 1
    14 13 12 ar
    15 14 13 ar
    16 15 14 ar
    17 16 15 ar
    18 17 12 ar
    19 17 16 ar
    20 18 4 1
    21 19 1 1
    22 20 2 1
    23 21 3 1
    24 22 6 1
    25 23 13 1
    26 24 14 1
    27 25 16 1
    28 26 17 1
@<TRIPOS>SUBSTRUCTURE
1     ****    1
@<TRIPOS>MOLECULE
ZINC00001952
46 48 1 0 0 
SMALL
USER_CHARGES


@<TRIPOS>ATOM
      1 C1         -0.0390    7.6700   14.5840 C.3     1     ****   -0.1070 
      2 C2         -0.1900    8.8700   13.6470 C.3     1     ****   -0.1120 
      3 C3          0.5730    8.6630   12.3190 C.3     1     ****    0.1290 
      4 C4          2.1730    7.1410   13.5280 C.3     1     ****    0.0980 
      5 C5          1.4380    7.3410   14.8460 C.3     1     ****    0.0000 
      6 CL1         1.5770    5.8850   15.8330 Cl      1     ****   -0.0570 
      7 C6          0.5200    9.9320   11.4180 C.3     1     ****   -0.0020 
      8 C7         -0.8790   10.2110   10.8590 C.2     1     ****    0.6870 
      9 O1         -1.9200    9.7580   11.3230 O.2     1     ****   -0.5470 
     10 N1         -0.8740   11.1330    9.8230 N.am    1     ****   -0.5700 
     11 C8          0.3290   11.8530    9.4400 C.3     1     ****    0.0300 
     12 C9          1.4440   10.8150    9.2950 C.2     1     ****    0.6830 
     13 O2          2.3720   10.9160    8.4960 O.2     1     ****   -0.6040 
     14 N2          1.3860    9.8110   10.2510 N.am    1     ****   -0.5630 
     15 C10         0.0780   12.6910    8.1590 C.3     1     ****    0.1230 
     16 C11        -0.3050   11.8430    6.9300 C.3     1     ****   -0.1080 
     17 C12        -0.4630   12.7110    5.6800 C.3     1     ****   -0.1080 
     18 C13         0.7990   13.5480    5.4150 C.3     1     ****    0.0010 
     19 C14         1.1570   14.3760    6.6440 C.3     1     ****    0.0990 
     20 CL2         0.5460   14.6160    4.0320 Cl      1     ****   -0.0610 
     21 H1         -1.7780   11.4260    9.4640 H       1     ****    0.3640 
     22 H2          2.1140    9.1080   10.1980 H       1     ****    0.3360 
     23 H3         -0.5460    6.8050   14.1380 H       1     ****    0.0930 
     24 H4         -0.5490    7.8850   15.5310 H       1     ****    0.1200 
     25 H5         -1.2570    9.0300   13.4730 H       1     ****    0.1360 
     26 H6          0.1840    9.7700   14.1540 H       1     ****    0.0710 
     27 H7          0.1160    7.8120   11.7840 H       1     ****    0.1390 
     28 H8          1.7950    6.2860   12.9560 H       1     ****    0.1260 
     29 H9          3.2510    7.0230   13.6790 H       1     ****    0.1280 
     30 H10         1.8530    8.2210   15.3700 H       1     ****    0.1010 
     31 H11         0.8230   10.7910   12.0380 H       1     ****    0.1030 
     32 H12         0.6290   12.5540   10.2360 H       1     ****    0.0880 
     33 H13        -0.7660   13.3760    8.3560 H       1     ****    0.1220 
     34 H14         0.4520   11.0760    6.7310 H       1     ****    0.0890 
     35 H15        -1.2470   11.3130    7.1140 H       1     ****    0.1010 
     36 H16        -0.6770   12.0680    4.8180 H       1     ****    0.1180 
     37 H17        -1.3320   13.3690    5.8110 H       1     ****    0.0860 
     38 H18         1.6060   12.8190    5.2160 H       1     ****    0.1060 
     39 H19         2.1170   14.8880    6.5230 H       1     ****    0.1310 
     40 H20         0.3870   15.1130    6.8970 H       1     ****    0.1210 
     41 N3          1.9970    8.3530   12.6630 N.4     1     ****   -0.7650 
     42 H21         2.5420    8.1930   11.8080 H       1     ****    0.4500 
     43 H22         2.4340    9.1650   13.1220 H       1     ****    0.4540 
     44 N4          1.3040   13.4760    7.8310 N.4     1     ****   -0.7670 
     45 H23         1.5720   14.0530    8.6410 H       1     ****    0.4540 
     46 H24         2.0970   12.8350    7.6750 H       1     ****    0.4820 
@<TRIPOS>BOND
     1  2 1 1
     2  3 2 1
     3  5 1 1
     4  5 4 1
     5  6 5 1
     6  7 3 1
     7  8 7 1
     8  9 8 2
     9 10 8 1
    10 11 10 1
    11 12 11 1
    12 13 12 2
    13 14 7 1
    14 14 12 1
    15 15 11 1
    16 16 15 1
    17 17 16 1
    18 18 17 1
    19 19 18 1
    20 20 18 1
    21 21 10 1
    22 22 14 1
    23 23 1 1
    24 24 1 1
    25 25 2 1
    26 26 2 1
    27 27 3 1
    28 28 4 1
    29 29 4 1
    30 30 5 1
    31 31 7 1
    32 32 11 1
    33 33 15 1
    34 34 16 1
    35 35 16 1
    36 36 17 1
    37 37 17 1
    38 38 18 1
    39 39 19 1
    40 40 19 1
    41 41 3 1
    42 41 4 1
    43 42 41 1
    44 43 41 1
    45 44 15 1
    46 44 19 1
    47 45 44 1
    48 46 44 1
@<TRIPOS>SUBSTRUCTURE
1     ****    1
@<TRIPOS>MOLECULE
ZINC00001968
43 46 1 0 0 
SMALL
USER_CHARGES


@<TRIPOS>ATOM
      1 C1          4.9780  -10.5030    4.2460 C.3     1     ****    0.0840 
      2 C2          6.3100   -8.4220    4.0390 C.3     1     ****    0.1160 
      3 C3          6.8320   -7.3770    3.0560 C.3     1     ****   -0.0540 
      4 C4          5.6900   -6.6440    2.3650 C.2     1     ****   -0.2090 
      5 C5          5.5200   -5.2930    2.3820 C.2     1     ****    0.1380 
      6 C6          4.2940   -4.7100    1.7680 C.ar    1     ****   -0.0900 
      7 C7          4.1470   -4.6470    0.3750 C.ar    1     ****   -0.1170 
      8 C8          3.0020   -4.0780   -0.1830 C.ar    1     ****   -0.1260 
      9 C9          2.0080   -3.5560    0.6430 C.ar    1     ****   -0.1080 
     10 C10         2.1580   -3.5920    2.0300 C.ar    1     ****   -0.1210 
     11 C11         3.3010   -4.1610    2.6060 C.ar    1     ****   -0.0630 
     12 C12         3.4870   -4.1520    4.1080 C.3     1     ****   -0.0290 
     13 C13         4.5900   -3.1870    4.5600 C.3     1     ****   -0.0120 
     14 C14         5.9750   -3.4800    4.0290 C.2     1     ****   -0.0830 
     15 C15         6.4140   -4.3850    3.0730 C.2     1     ****   -0.1310 
     16 C16         7.8120   -4.2470    2.8020 C.2     1     ****   -0.1510 
     17 C17         8.4060   -3.2960    3.5980 C.2     1     ****   -0.1740 
     18 S1          7.2850   -2.5440    4.6410 S.2     1     ****    0.0920 
     19 C18         4.7400   -7.6380    1.7090 C.3     1     ****   -0.0560 
     20 C19         4.2420   -8.6760    2.7110 C.3     1     ****    0.1160 
     21 H1          4.3620  -11.2000    3.6720 H       1     ****    0.1020 
     22 H2          5.8730  -11.0120    4.6140 H       1     ****    0.1020 
     23 H3          4.4090  -10.0610    5.0680 H       1     ****    0.1040 
     24 H4          5.7290   -7.9680    4.8510 H       1     ****    0.1030 
     25 H5          7.1430   -8.9930    4.4630 H       1     ****    0.0940 
     26 H6          7.4930   -6.7110    3.6150 H       1     ****    0.1120 
     27 H7          7.4520   -7.8600    2.2900 H       1     ****    0.0670 
     28 H8          4.9180   -5.0410   -0.2820 H       1     ****    0.1370 
     29 H9          2.8880   -4.0370   -1.2620 H       1     ****    0.1460 
     30 H10         1.1190   -3.1110    0.2060 H       1     ****    0.1480 
     31 H11         1.3800   -3.1620    2.6570 H       1     ****    0.1450 
     32 H12         2.5470   -3.8580    4.5920 H       1     ****    0.0620 
     33 H13         3.6910   -5.1720    4.4580 H       1     ****    0.0400 
     34 H14         4.3160   -2.1660    4.2610 H       1     ****    0.0740 
     35 H15         4.6220   -3.2030    5.6570 H       1     ****    0.0600 
     36 H16         8.3600   -4.8210    2.0650 H       1     ****    0.1540 
     37 H17         9.4460   -3.0020    3.6090 H       1     ****    0.1860 
     38 H18         3.8610   -7.1670    1.2630 H       1     ****    0.1120 
     39 H19         5.2710   -8.1360    0.8880 H       1     ****    0.0670 
     40 H20         3.6250   -9.4270    2.2070 H       1     ****    0.0950 
     41 H21         3.6680   -8.2200    3.5270 H       1     ****    0.1040 
     42 N1          5.4190   -9.4000    3.3140 N.4     1     ****   -0.6830 
     43 H22         5.9400   -9.8840    2.5620 H       1     ****    0.4450 
@<TRIPOS>BOND
     1  3 2 1
     2  4 3 1
     3  5 4 2
     4  6 5 1
     5  7 6 ar
     6  8 7 ar
     7  9 8 ar
     8 10 9 ar
     9 11 6 ar
    10 11 10 ar
    11 12 11 1
    12 13 12 1
    13 14 13 1
    14 15 5 1
    15 15 14 2
    16 16 15 1
    17 17 16 2
    18 18 14 1
    19 18 17 1
    20 19 4 1
    21 20 19 1
    22 21 1 1
    23 22 1 1
    24 23 1 1
    25 24 2 1
    26 25 2 1
    27 26 3 1
    28 27 3 1
    29 28 7 1
    30 29 8 1
    31 30 9 1
    32 31 10 1
    33 32 12 1
    34 33 12 1
    35 34 13 1
    36 35 13 1
    37 36 16 1
    38 37 17 1
    39 38 19 1
    40 39 19 1
    41 40 20 1
    42 41 20 1
    43 42 1 1
    44 42 2 1
    45 42 20 1
    46 43 42 1
@<TRIPOS>SUBSTRUCTURE
1     ****    1
@<TRIPOS>MOLECULE
ZINC00002005
14 14 1 0 0 
SMALL
USER_CHARGES


@<TRIPOS>ATOM
      1 C1         -0.3680    3.0200    0.3050 C.ar    1     ****    0.3040 
      2 C2         -1.0080    3.5780    1.3910 C.ar    1     ****    0.2750 
      3 N1         -0.5080    3.4890    2.6400 N.ar    1     ****   -0.6220 
      4 C3          0.6600    2.8180    2.7620 C.ar    1     ****    0.2370 
      5 C4          1.3020    2.2580    1.6730 C.ar    1     ****    0.3400 
      6 N2          0.7970    2.3500    0.4250 N.ar    1     ****   -0.6330 
      7 C5          1.2330    2.7040    4.1210 C.2     1     ****    0.5750 
      8 O1          2.2880    2.1120    4.3170 O.2     1     ****   -0.6150 
      9 N3          0.4980    3.3040    5.1170 N.am    1     ****   -0.6510 
     10 H1          0.8120    3.2780    6.0810 H       1     ****    0.3210 
     11 H2         -0.3730    3.7870    4.9210 H       1     ****    0.3270 
     12 H3         -0.7730    3.0930   -0.6970 H       1     ****    0.0390 
     13 H4         -1.9430    4.1150    1.2890 H       1     ****    0.0380 
     14 H5          2.2380    1.7180    1.7570 H       1     ****    0.0660 
@<TRIPOS>BOND
     1  2 1 ar
     2  3 2 ar
     3  4 3 ar
     4  5 4 ar
     5  6 1 ar
     6  6 5 ar
     7  7 4 1
     8  8 7 2
     9  9 7 1
    10 10 9 1
    11 11 9 1
    12 12 1 1
    13 13 2 1
    14 14 5 1
@<TRIPOS>SUBSTRUCTURE
1     ****    1
@<TRIPOS>MOLECULE
ZINC00002012
22 23 1 0 0 
SMALL
USER_CHARGES


@<TRIPOS>ATOM
      1 C1          5.6440   -5.6820    1.2650 C.ar    1     ****   -0.0930 
      2 C2          4.5880   -4.7700    1.3170 C.ar    1     ****   -0.1190 
      3 C3          3.5610   -4.8180    0.3650 C.ar    1     ****    0.0780 
      4 C4          3.6290   -5.7980   -0.6390 C.ar    1     ****   -0.1500 
      5 C5          4.6850   -6.7150   -0.7010 C.ar    1     ****    0.0520 
      6 C6          5.6930   -6.6520    0.2620 C.ar    1     ****   -0.1310 
      7 CL1         4.8060   -7.9260   -1.9270 Cl      1     ****   -0.0510 
      8 N1          2.5950   -5.8490   -1.6480 N.2     1     ****    0.3200 
      9 O1          2.7170   -5.0850   -2.6130 O.2     1     ****   -0.1760 
     10 O2          1.6740   -6.6550   -1.4650 O.3     1     ****   -0.2180 
     11 C7          2.4850   -3.8480    0.4550 C.2     1     ****   -0.1590 
     12 C8          1.2260   -4.1690    0.9260 C.2     1     ****   -0.0990 
     13 N2          0.4590   -3.0330    0.8900 N.pl3   1     ****   -0.1620 
     14 C9          1.2060   -1.9870    0.4130 C.2     1     ****   -0.1560 
     15 C10         2.4680   -2.4630    0.1380 C.2     1     ****   -0.0380 
     16 CL2         3.7730   -1.5650   -0.4790 Cl      1     ****   -0.0510 
     17 H1         -0.5100   -2.9750    1.1740 H       1     ****    0.3070 
     18 H2          6.4340   -5.6360    2.0110 H       1     ****    0.1480 
     19 H3          4.5750   -4.0250    2.1100 H       1     ****    0.1590 
     20 H4          6.5270   -7.3500    0.2420 H       1     ****    0.1590 
     21 H5          0.8050   -5.1000    1.2810 H       1     ****    0.2000 
     22 H6          0.7720   -1.0020    0.3130 H       1     ****    0.1820 
@<TRIPOS>BOND
     1  2 1 ar
     2  3 2 ar
     3  4 3 ar
     4  5 4 ar
     5  6 1 ar
     6  6 5 ar
     7  7 5 1
     8  8 4 1
     9  9 8 2
    10 10 8 1
    11 11 3 1
    12 12 11 2
    13 13 12 1
    14 14 13 1
    15 15 11 1
    16 15 14 2
    17 16 15 1
    18 17 13 1
    19 18 1 1
    20 19 2 1
    21 20 6 1
    22 21 12 1
    23 22 14 1
@<TRIPOS>SUBSTRUCTURE
1     ****    1
@<TRIPOS>MOLECULE
ZINC00002028
14 14 1 0 0 
SMALL
USER_CHARGES


@<TRIPOS>ATOM
      1 C1          5.5340   -9.5480    0.5070 C.ar    1     ****   -0.0600 
      2 C2          4.5620   -9.3240    1.4830 C.ar    1     ****   -0.2490 
      3 C3          3.6950   -8.2390    1.3520 C.ar    1     ****    0.1620 
      4 C4          3.7870   -7.3770    0.2620 C.ar    1     ****   -0.2460 
      5 C5          4.7630   -7.6120   -0.7050 C.ar    1     ****    0.1580 
      6 C6          5.6370   -8.6920   -0.5900 C.ar    1     ****   -0.1920 
      7 O1          4.8900   -6.7930   -1.7910 O.3     1     ****   -0.4950 
      8 O2          2.7320   -7.9910    2.2890 O.3     1     ****   -0.4970 
      9 H1          4.2180   -6.0930   -1.7310 H       1     ****    0.4220 
     10 H2          2.7910   -8.6720    2.9820 H       1     ****    0.4220 
     11 H3          6.2130  -10.3910    0.6020 H       1     ****    0.1360 
     12 H4          4.4910   -9.9970    2.3320 H       1     ****    0.1350 
     13 H5          3.1050   -6.5360    0.1740 H       1     ****    0.1520 
     14 H6          6.3950   -8.8700   -1.3470 H       1     ****    0.1520 
@<TRIPOS>BOND
     1  2 1 ar
     2  3 2 ar
     3  4 3 ar
     4  5 4 ar
     5  6 1 ar
     6  6 5 ar
     7  7 5 1
     8  8 3 1
     9  9 7 1
    10 10 8 1
    11 11 1 1
    12 12 2 1
    13 13 4 1
    14 14 6 1
@<TRIPOS>SUBSTRUCTURE
1     ****    1
@<TRIPOS>MOLECULE
ZINC00002131
41 43 1 0 0 
SMALL
USER_CHARGES


@<TRIPOS>ATOM
      1 C1          6.2530   -8.0740    0.8220 C.2     1     ****   -0.1550 
      2 C2          4.9710   -7.4560    0.8930 C.2     1     ****   -0.0940 
      3 C3          4.8900   -6.2860    0.1570 C.2     1     ****   -0.2470 
      4 S1          6.4090   -5.9520   -0.6030 S.2     1     ****    0.0390 
      5 C4          7.1280   -7.3590    0.0390 C.2     1     ****   -0.1140 
      6 C5          3.7030   -5.3000   -0.0320 C.3     1     ****    0.2700 
      7 C6          2.4800   -5.7650    0.8130 C.3     1     ****   -0.0910 
      8 C7          1.1590   -5.0880    0.4740 C.3     1     ****   -0.0860 
      9 C8          0.8140   -5.2990   -0.9920 C.3     1     ****   -0.0880 
     10 C9          1.9140   -4.7820   -1.9050 C.3     1     ****   -0.0890 
     11 C10         3.3060   -5.3170   -1.5440 C.3     1     ****   -0.0960 
     12 C11         4.3010   -3.7140    1.9350 C.3     1     ****    0.1100 
     13 C12         5.1650   -2.5100    2.2770 C.3     1     ****   -0.1060 
     14 C13         4.6130   -1.2400    1.6490 C.3     1     ****   -0.0970 
     15 C14         4.4560   -1.4100    0.1450 C.3     1     ****   -0.1070 
     16 C15         3.6210   -2.6350   -0.2200 C.3     1     ****    0.1060 
     17 H1          6.5200   -8.9950    1.3240 H       1     ****    0.1830 
     18 H2          4.1530   -7.8680    1.4700 H       1     ****    0.1670 
     19 H3          8.1590   -7.5980   -0.1840 H       1     ****    0.1990 
     20 H4          2.3180   -6.8380    0.6340 H       1     ****    0.0930 
     21 H5          2.6680   -5.6910    1.8890 H       1     ****    0.0610 
     22 H6          0.3640   -5.5210    1.0930 H       1     ****    0.0770 
     23 H7          1.1890   -4.0230    0.7170 H       1     ****    0.0340 
     24 H8          0.6560   -6.3680   -1.1810 H       1     ****    0.0630 
     25 H9         -0.1300   -4.7950   -1.2270 H       1     ****    0.0710 
     26 H10         1.6830   -5.0680   -2.9390 H       1     ****    0.0770 
     27 H11         1.8930   -3.6900   -1.8960 H       1     ****    0.0390 
     28 H12         4.0580   -4.8030   -2.1560 H       1     ****    0.0560 
     29 H13         3.3270   -6.3620   -1.8880 H       1     ****    0.0960 
     30 H14         3.2840   -3.5890    2.3210 H       1     ****    0.1000 
     31 H15         4.7490   -4.6230    2.3470 H       1     ****    0.1030 
     32 H16         5.2120   -2.3900    3.3660 H       1     ****    0.0970 
     33 H17         6.1920   -2.6790    1.9300 H       1     ****    0.0670 
     34 H18         3.6410   -0.9990    2.0950 H       1     ****    0.0650 
     35 H19         5.2810   -0.3980    1.8610 H       1     ****    0.0880 
     36 H20         3.9900   -0.5130   -0.2790 H       1     ****    0.0960 
     37 H21         5.4490   -1.4960   -0.3150 H       1     ****    0.0660 
     38 H22         3.6760   -2.7550   -1.3020 H       1     ****    0.0990 
     39 H23         2.5880   -2.5260    0.1130 H       1     ****    0.1050 
     40 N1          4.2050   -3.8730    0.4220 N.4     1     ****   -0.6860 
     41 H24         5.1810   -3.8690    0.0960 H       1     ****    0.4340 
@<TRIPOS>BOND
     1  2 1 1
     2  3 2 2
     3  4 3 1
     4  5 1 2
     5  5 4 1
     6  6 3 1
     7  7 6 1
     8  8 7 1
     9  9 8 1
    10 10 9 1
    11 11 6 1
    12 11 10 1
    13 13 12 1
    14 14 13 1
    15 15 14 1
    16 16 15 1
    17 17 1 1
    18 18 2 1
    19 19 5 1
    20 20 7 1
    21 21 7 1
    22 22 8 1
    23 23 8 1
    24 24 9 1
    25 25 9 1
    26 26 10 1
    27 27 10 1
    28 28 11 1
    29 29 11 1
    30 30 12 1
    31 31 12 1
    32 32 13 1
    33 33 13 1
    34 34 14 1
    35 35 14 1
    36 36 15 1
    37 37 15 1
    38 38 16 1
    39 39 16 1
    40 40 6 1
    41 40 12 1
    42 40 16 1
    43 41 40 1
@<TRIPOS>SUBSTRUCTURE
1     ****    1
@<TRIPOS>MOLECULE
ZINC00002140
46 49 1 0 0 
SMALL
USER_CHARGES


@<TRIPOS>ATOM
      1 C1          5.5480   -5.8530    0.3260 C.3     1     ****   -0.1130 
      2 C2          4.4670   -6.9020    0.6660 C.3     1     ****    0.1720 
      3 C3          5.0990   -8.2230    1.1840 C.3     1     ****   -0.0790 
      4 C4          5.1870   -8.3740    2.7100 C.3     1     ****   -0.0740 
      5 C5          5.3520   -6.9950    3.3600 C.3     1     ****   -0.0520 
      6 C6          4.0310   -6.2130    3.1530 C.3     1     ****   -0.0510 
      7 C7          3.4350   -6.4170    1.7170 C.3     1     ****   -0.0830 
      8 C8          2.6860   -5.2160    1.1340 C.3     1     ****   -0.0780 
      9 C9          2.0050   -5.6070   -0.1650 C.3     1     ****   -0.1660 
     10 C10         2.8400   -6.4220   -1.1190 C.2     1     ****    0.7160 
     11 O1          2.5820   -6.4590   -2.3190 O.2     1     ****   -0.5840 
     12 O2          3.7950   -7.2150   -0.5800 O.3     1     ****   -0.4250 
     13 C11         4.2780   -4.7410    3.5420 C.3     1     ****   -0.0730 
     14 C12         4.6930   -4.6520    5.0180 C.3     1     ****   -0.0540 
     15 C13         5.8550   -5.5670    5.3370 C.2     1     ****   -0.0440 
     16 C14         6.9550   -5.0600    5.9180 C.2     1     ****   -0.2480 
     17 C15         8.1550   -5.8840    6.1580 C.2     1     ****    0.5610 
     18 O3          9.1400   -5.4230    6.7250 O.2     1     ****   -0.5290 
     19 C16         8.1340   -7.2760    5.6760 C.2     1     ****   -0.2390 
     20 C17         7.0380   -7.7790    5.1000 C.2     1     ****   -0.1040 
     21 C18         5.7270   -7.0310    4.8870 C.3     1     ****    0.0080 
     22 C19         4.6860   -7.7610    5.7670 C.3     1     ****   -0.0820 
     23 H1          6.3010   -6.2940   -0.3390 H       1     ****    0.0580 
     24 H2          5.1280   -5.0160   -0.2420 H       1     ****    0.0440 
     25 H3          6.0710   -5.4330    1.1830 H       1     ****    0.0490 
     26 H4          4.5380   -9.0820    0.7930 H       1     ****    0.0740 
     27 H5          6.1050   -8.3330    0.7580 H       1     ****    0.0560 
     28 H6          4.2770   -8.8630    3.0780 H       1     ****    0.0460 
     29 H7          6.0180   -9.0490    2.9320 H       1     ****    0.0500 
     30 H8          6.1940   -6.5370    2.8170 H       1     ****    0.0630 
     31 H9          3.2550   -6.5440    3.8670 H       1     ****    0.0530 
     32 H10         2.6440   -7.1870    1.8390 H       1     ****    0.0610 
     33 H11         1.9170   -4.8700    1.8350 H       1     ****    0.0550 
     34 H12         3.3580   -4.3690    0.9590 H       1     ****    0.0560 
     35 H13         1.1100   -6.2010    0.0550 H       1     ****    0.0820 
     36 H14         1.6820   -4.6970   -0.6830 H       1     ****    0.0850 
     37 H15         5.0530   -4.2930    2.9090 H       1     ****    0.0510 
     38 H16         3.3700   -4.1410    3.4200 H       1     ****    0.0480 
     39 H17         4.9320   -3.6070    5.2500 H       1     ****    0.0570 
     40 H18         3.8420   -4.9190    5.6570 H       1     ****    0.0570 
     41 H19         7.0200   -4.0170    6.2120 H       1     ****    0.1510 
     42 H20         9.0260   -7.8750    5.8190 H       1     ****    0.1520 
     43 H21         7.0780   -8.8240    4.7990 H       1     ****    0.1330 
     44 H22         5.0130   -7.7950    6.8150 H       1     ****    0.0490 
     45 H23         3.7050   -7.2780    5.7700 H       1     ****    0.0440 
     46 H24         4.5410   -8.7980    5.4430 H       1     ****    0.0440 
@<TRIPOS>BOND
     1  2 1 1
     2  3 2 1
     3  4 3 1
     4  5 4 1
     5  6 5 1
     6  7 2 1
     7  7 6 1
     8  8 7 1
     9  9 8 1
    10 10 9 1
    11 11 10 2
    12 12 2 1
    13 12 10 1
    14 13 6 1
    15 14 13 1
    16 15 14 1
    17 16 15 2
    18 17 16 1
    19 18 17 2
    20 19 17 1
    21 20 19 2
    22 21 5 1
    23 21 15 1
    24 21 20 1
    25 22 21 1
    26 23 1 1
    27 24 1 1
    28 25 1 1
    29 26 3 1
    30 27 3 1
    31 28 4 1
    32 29 4 1
    33 30 5 1
    34 31 6 1
    35 32 7 1
    36 33 8 1
    37 34 8 1
    38 35 9 1
    39 36 9 1
    40 37 13 1
    41 38 13 1
    42 39 14 1
    43 40 14 1
    44 41 16 1
    45 42 19 1
    46 43 20 1
    47 44 22 1
    48 45 22 1
    49 46 22 1
@<TRIPOS>SUBSTRUCTURE
1     ****    1
@<TRIPOS>MOLECULE
ZINC00002151
21 22 1 0 0 
SMALL
USER_CHARGES


@<TRIPOS>ATOM
      1 C1          0.7640   -2.1160   -6.0230 C.3     1     ****    0.0220 
      2 N1          0.2750   -1.7640   -4.7140 N.pl3   1     ****   -0.1490 
      3 C2          0.3470   -0.5240   -4.1360 C.2     1     ****    0.4460 
      4 N2         -0.1870   -0.5100   -2.9310 N.2     1     ****   -0.6850 
      5 C3         -0.6150   -1.7940   -2.7370 C.2     1     ****    0.4870 
      6 C4         -0.3440   -2.5910   -3.8210 C.2     1     ****   -0.3540 
      7 C5         -0.6860   -3.9770   -3.8830 C.2     1     ****    0.7640 
      8 O1         -0.4620   -4.7220   -4.8310 O.2     1     ****   -0.6250 
      9 N3         -1.3220   -4.4000   -2.7120 N.am    1     ****   -0.5810 
     10 C6         -1.6310   -3.6400   -1.5650 C.2     1     ****    0.8170 
     11 O2         -2.1990   -4.1700   -0.6070 O.2     1     ****   -0.6390 
     12 N4         -1.2520   -2.2830   -1.6030 N.am    1     ****   -0.4180 
     13 C7         -1.5210   -1.4040   -0.4750 C.3     1     ****    0.0910 
     14 H1         -1.5960   -5.3770   -2.6810 H       1     ****    0.3580 
     15 H2          1.2100   -1.2370   -6.4960 H       1     ****    0.0580 
     16 H3          1.5200   -2.8980   -5.9120 H       1     ****    0.0730 
     17 H4         -0.0760   -2.4720   -6.6240 H       1     ****    0.0750 
     18 H5          0.7960    0.3260   -4.6330 H       1     ****    0.0710 
     19 H6         -2.0240   -1.9370    0.3360 H       1     ****    0.0840 
     20 H7         -0.5730   -1.0050   -0.1010 H       1     ****    0.0530 
     21 H8         -2.1610   -0.5820   -0.8090 H       1     ****    0.0540 
@<TRIPOS>BOND
     1  2 1 1
     2  3 2 1
     3  4 3 2
     4  5 4 1
     5  6 2 1
     6  6 5 ar
     7  7 6 1
     8  8 7 2
     9  9 7 1
    10 10 9 1
    11 11 10 2
    12 12 5 1
    13 12 10 1
    14 13 12 1
    15 14 9 1
    16 15 1 1
    17 16 1 1
    18 17 1 1
    19 18 3 1
    20 19 13 1
    21 20 13 1
    22 21 13 1
@<TRIPOS>SUBSTRUCTURE
1     ****    1
@<TRIPOS>MOLECULE
ZINC00002171
21 22 1 0 0 
SMALL
USER_CHARGES


@<TRIPOS>ATOM
      1 C1          5.3890   -9.0400   -0.5550 C.3     1     ****   -0.0500 
      2 C2          4.1330   -8.3720   -0.0580 C.ar    1     ****   -0.0970 
      3 C3          3.6350   -8.7370    1.1990 C.ar    1     ****   -0.0870 
      4 C4          2.4810   -8.1470    1.6950 C.ar    1     ****   -0.2280 
      5 C5          1.8190   -7.1860    0.9320 C.ar    1     ****    0.0950 
      6 C6          2.2730   -6.7860   -0.3250 C.ar    1     ****    0.3790 
      7 C7          3.4500   -7.3890   -0.8280 C.ar    1     ****   -0.1140 
      8 C8          3.8860   -6.9670   -2.1010 C.ar    1     ****   -0.0940 
      9 C9          3.1870   -6.0050   -2.8170 C.ar    1     ****   -0.2380 
     10 C10         2.0550   -5.4810   -2.2370 C.ar    1     ****    0.3970 
     11 N1          1.5940   -5.8500   -1.0230 N.ar    1     ****   -0.6250 
     12 O1          0.6770   -6.6070    1.4320 O.3     1     ****   -0.4670 
     13 H1          0.4900   -6.9840    2.3080 H       1     ****    0.4160 
     14 H2          5.7740   -9.7660    0.1700 H       1     ****    0.0430 
     15 H3          5.1900   -9.5810   -1.4850 H       1     ****    0.0450 
     16 H4          6.1750   -8.2960   -0.7210 H       1     ****    0.0450 
     17 H5          4.1450   -9.4860    1.8000 H       1     ****    0.1350 
     18 H6          2.1080   -8.4420    2.6710 H       1     ****    0.1360 
     19 H7          4.7830   -7.3860   -2.5530 H       1     ****    0.1400 
     20 H8          3.5220   -5.6790   -3.7950 H       1     ****    0.1440 
     21 H9          1.4640   -4.7260   -2.7440 H       1     ****    0.0240 
@<TRIPOS>BOND
     1  2 1 1
     2  3 2 ar
     3  4 3 ar
     4  5 4 ar
     5  6 5 ar
     6  7 2 ar
     7  7 6 ar
     8  8 7 ar
     9  9 8 ar
    10 10 9 ar
    11 11 6 ar
    12 11 10 ar
    13 12 5 1
    14 13 12 1
    15 14 1 1
    16 15 1 1
    17 16 1 1
    18 17 3 1
    19 18 4 1
    20 19 8 1
    21 20 9 1
    22 21 10 1
@<TRIPOS>SUBSTRUCTURE
1     ****    1
@<TRIPOS>MOLECULE
ZINC00002295
45 48 1 0 0 
SMALL
USER_CHARGES


@<TRIPOS>ATOM
      1 C1         -1.8670   -3.8560    6.5360 C.3     1     ****   -0.1210 
      2 C2         -3.1550   -4.4290    5.9180 C.3     1     ****    0.1820 
      3 C3         -4.1680   -4.8290    7.0140 C.3     1     ****   -0.1860 
      4 C4         -5.2620   -3.8100    7.2780 C.2     1     ****    0.5670 
      5 O1         -6.3320   -4.1780    7.7550 O.2     1     ****   -0.5020 
      6 C5         -4.8540   -2.3470    7.0660 C.3     1     ****    0.1030 
      7 C6         -4.4250   -2.1710    5.5860 C.3     1     ****   -0.0760 
      8 C7         -3.8760   -3.4700    4.9350 C.3     1     ****   -0.0920 
      9 C8         -2.9550   -3.2190    3.7370 C.3     1     ****   -0.0760 
     10 C9         -2.6180   -4.5320    3.0580 C.3     1     ****   -0.1660 
     11 C10        -2.2240   -5.6490    3.9870 C.2     1     ****    0.7180 
     12 O2         -1.5360   -6.5900    3.5990 O.2     1     ****   -0.5740 
     13 O3         -2.7770   -5.6450    5.2230 O.3     1     ****   -0.4270 
     14 C11        -3.5180   -0.9070    5.5250 C.3     1     ****   -0.0680 
     15 C12        -3.9870    0.2150    6.4790 C.3     1     ****   -0.0560 
     16 C13        -5.4680    0.0850    6.7440 C.2     1     ****   -0.0570 
     17 C14        -6.3160    1.0060    6.2580 C.2     1     ****   -0.2410 
     18 C15        -7.7680    0.7380    6.2190 C.2     1     ****    0.5570 
     19 O4         -8.5750    1.6200    5.9520 O.2     1     ****   -0.5200 
     20 C16        -8.1950   -0.6610    6.4270 C.2     1     ****   -0.2410 
     21 C17        -7.3440   -1.5650    6.9320 C.2     1     ****   -0.1130 
     22 C18        -5.9310   -1.2330    7.4040 C.3     1     ****   -0.0040 
     23 C19        -6.0070   -1.0510    8.9350 C.3     1     ****   -0.0840 
     24 F1         -3.7770   -2.1200    7.8750 F       1     ****   -0.2250 
     25 H1         -1.4350   -4.5850    7.2340 H       1     ****    0.0630 
     26 H2         -1.0920   -3.6980    5.7790 H       1     ****    0.0460 
     27 H3         -1.9950   -2.9240    7.0800 H       1     ****    0.0640 
     28 H4         -4.6690   -5.7610    6.7200 H       1     ****    0.1090 
     29 H5         -3.6590   -5.0310    7.9630 H       1     ****    0.0970 
     30 H6         -5.2950   -1.9130    4.9490 H       1     ****    0.0770 
     31 H7         -4.7530   -3.9930    4.4970 H       1     ****    0.0670 
     32 H8         -3.4480   -2.5600    3.0130 H       1     ****    0.0600 
     33 H9         -2.0310   -2.7140    4.0370 H       1     ****    0.0590 
     34 H10        -3.4850   -4.8850    2.4860 H       1     ****    0.0850 
     35 H11        -1.7970   -4.3650    2.3520 H       1     ****    0.0890 
     36 H12        -2.4760   -1.1470    5.7600 H       1     ****    0.0580 
     37 H13        -3.5210   -0.5220    4.4980 H       1     ****    0.0520 
     38 H14        -3.4430    0.1640    7.4300 H       1     ****    0.0710 
     39 H15        -3.7290    1.1880    6.0420 H       1     ****    0.0600 
     40 H16        -5.9750    1.9220    5.7870 H       1     ****    0.1540 
     41 H17        -9.2190   -0.9180    6.1830 H       1     ****    0.1570 
     42 H18        -7.7530   -2.5540    7.1040 H       1     ****    0.1680 
     43 H19        -6.7400   -0.2840    9.2170 H       1     ****    0.0570 
     44 H20        -6.2960   -1.9810    9.4380 H       1     ****    0.0560 
     45 H21        -5.0430   -0.7360    9.3520 H       1     ****    0.0550 
@<TRIPOS>BOND
     1  2 1 1
     2  3 2 1
     3  4 3 1
     4  5 4 2
     5  6 4 1
     6  7 6 1
     7  8 2 1
     8  8 7 1
     9  9 8 1
    10 10 9 1
    11 11 10 1
    12 12 11 2
    13 13 2 1
    14 13 11 1
    15 14 7 1
    16 15 14 1
    17 16 15 1
    18 17 16 2
    19 18 17 1
    20 19 18 2
    21 20 18 1
    22 21 20 2
    23 22 6 1
    24 22 16 1
    25 22 21 1
    26 23 22 1
    27 24 6 1
    28 25 1 1
    29 26 1 1
    30 27 1 1
    31 28 3 1
    32 29 3 1
    33 30 7 1
    34 31 8 1
    35 32 9 1
    36 33 9 1
    37 34 10 1
    38 35 10 1
    39 36 14 1
    40 37 14 1
    41 38 15 1
    42 39 15 1
    43 40 17 1
    44 41 20 1
    45 42 21 1
    46 43 23 1
    47 44 23 1
    48 45 23 1
@<TRIPOS>SUBSTRUCTURE
1     ****    1
@<TRIPOS>MOLECULE
ZINC00002296
47 50 1 0 0 
SMALL
USER_CHARGES


@<TRIPOS>ATOM
      1 C1          1.3990   -3.6090   -1.7310 C.3     1     ****   -0.0970 
      2 C2          0.9130   -2.3270   -1.0120 C.3     1     ****   -0.0180 
      3 C3          0.8280   -2.6090    0.5160 C.3     1     ****   -0.0800 
      4 C4          2.1880   -2.6970    1.1920 C.3     1     ****   -0.1780 
      5 C5          3.0010   -1.4590    0.9130 C.2     1     ****    0.5670 
      6 O1          3.8300   -1.0340    1.7150 O.2     1     ****   -0.5290 
      7 C6          2.8430   -0.7940   -0.4010 C.2     1     ****   -0.2430 
      8 C7          1.9290   -1.2080   -1.2950 C.2     1     ****   -0.0430 
      9 C8          1.8740   -0.5560   -2.6640 C.3     1     ****   -0.0540 
     10 C9          0.4540   -0.2140   -3.1430 C.3     1     ****   -0.0730 
     11 C10        -0.4660   -1.4430   -3.0160 C.3     1     ****   -0.0760 
     12 C11        -0.4880   -1.8330   -1.5130 C.3     1     ****    0.0960 
     13 C12        -1.6470   -2.8100   -1.3650 C.2     1     ****    0.5630 
     14 O2         -1.5310   -4.0010   -1.0940 O.2     1     ****   -0.5010 
     15 C13        -3.0120   -2.1770   -1.5460 C.3     1     ****   -0.1840 
     16 C14        -3.0480   -1.0820   -2.6430 C.3     1     ****    0.1810 
     17 C15        -1.8950   -1.3600   -3.6500 C.3     1     ****   -0.0910 
     18 C16        -2.0210   -0.3590   -4.8010 C.3     1     ****   -0.0760 
     19 C17        -3.3770   -0.5040   -5.4710 C.3     1     ****   -0.1670 
     20 C18        -4.5560   -0.6710   -4.5470 C.2     1     ****    0.7170 
     21 O3         -5.7000   -0.4380   -4.9290 O.2     1     ****   -0.5780 
     22 O4         -4.3200   -1.2100   -3.3270 O.3     1     ****   -0.4230 
     23 C19        -3.0140    0.3370   -2.0380 C.3     1     ****   -0.1160 
     24 F1         -0.7800   -0.7240   -0.7700 F       1     ****   -0.2230 
     25 H1          1.4280   -3.5080   -2.8190 H       1     ****    0.0360 
     26 H2          2.4210   -3.8660   -1.4270 H       1     ****    0.0500 
     27 H3          0.7800   -4.4790   -1.4970 H       1     ****    0.0700 
     28 H4          0.2610   -1.8080    1.0090 H       1     ****    0.0620 
     29 H5          0.2760   -3.5370    0.7110 H       1     ****    0.0710 
     30 H6          2.0440   -2.7800    2.2750 H       1     ****    0.0790 
     31 H7          2.7540   -3.5720    0.8570 H       1     ****    0.0720 
     32 H8          3.5370    0.0110   -0.6200 H       1     ****    0.1500 
     33 H9          2.4760    0.3600   -2.6880 H       1     ****    0.0620 
     34 H10         2.3330   -1.2440   -3.3860 H       1     ****    0.0570 
     35 H11         0.0620    0.6340   -2.5710 H       1     ****    0.0640 
     36 H12         0.5250    0.1120   -4.1860 H       1     ****    0.0520 
     37 H13         0.0300   -2.2170   -3.6290 H       1     ****    0.0720 
     38 H14        -3.7090   -2.9830   -1.8090 H       1     ****    0.1080 
     39 H15        -3.3370   -1.7840   -0.5760 H       1     ****    0.0960 
     40 H16        -2.0650   -2.3460   -4.1320 H       1     ****    0.0660 
     41 H17        -1.8860    0.6700   -4.4530 H       1     ****    0.0600 
     42 H18        -1.2420   -0.5400   -5.5510 H       1     ****    0.0570 
     43 H19        -3.5550    0.3750   -6.1000 H       1     ****    0.0880 
     44 H20        -3.3650   -1.3860   -6.1230 H       1     ****    0.0850 
     45 H21        -3.7240    0.4090   -1.2050 H       1     ****    0.0590 
     46 H22        -2.0410    0.6600   -1.6780 H       1     ****    0.0640 
     47 H23        -3.3520    1.0870   -2.7610 H       1     ****    0.0460 
@<TRIPOS>BOND
     1  2 1 1
     2  3 2 1
     3  4 3 1
     4  5 4 1
     5  6 5 2
     6  7 5 1
     7  8 2 1
     8  8 7 2
     9  9 8 1
    10 10 9 1
    11 11 10 1
    12 12 2 1
    13 12 11 1
    14 13 12 1
    15 14 13 2
    16 15 13 1
    17 16 15 1
    18 17 11 1
    19 17 16 1
    20 18 17 1
    21 19 18 1
    22 20 19 1
    23 21 20 2
    24 22 16 1
    25 22 20 1
    26 23 16 1
    27 24 12 1
    28 25 1 1
    29 26 1 1
    30 27 1 1
    31 28 3 1
    32 29 3 1
    33 30 4 1
    34 31 4 1
    35 32 7 1
    36 33 9 1
    37 34 9 1
    38 35 10 1
    39 36 10 1
    40 37 11 1
    41 38 15 1
    42 39 15 1
    43 40 17 1
    44 41 18 1
    45 42 18 1
    46 43 19 1
    47 44 19 1
    48 45 23 1
    49 46 23 1
    50 47 23 1
@<TRIPOS>SUBSTRUCTURE
1     ****    1
@<TRIPOS>MOLECULE
ZINC00002940
23 24 1 0 0 
SMALL
USER_CHARGES


@<TRIPOS>ATOM
      1 C1          5.1970   -7.4080   -1.2340 C.2     1     ****   -0.2250 
      2 C2          3.9210   -7.2620   -0.8600 C.2     1     ****    0.0030 
      3 N1          3.1790   -6.1200   -0.8620 N.3     1     ****   -0.4440 
      4 N2          1.9490   -6.2880   -0.2830 N.am    1     ****   -0.2430 
      5 C3          1.8150   -7.6260    0.1010 C.2     1     ****    0.6830 
      6 O1          0.8730   -8.1850    0.6470 O.2     1     ****   -0.5710 
      7 C4          3.0820   -8.3730   -0.3010 C.3     1     ****   -0.1390 
      8 C5          1.0340   -5.2150   -0.1630 C.ar    1     ****    0.0460 
      9 C6          1.3090   -3.9530   -0.7190 C.ar    1     ****   -0.1450 
     10 C7          0.4020   -2.8940   -0.6000 C.ar    1     ****   -0.1200 
     11 C8         -0.7980   -3.0740    0.0770 C.ar    1     ****   -0.1440 
     12 C9         -1.0920   -4.3140    0.6330 C.ar    1     ****   -0.1160 
     13 C10        -0.1860   -5.3740    0.5130 C.ar    1     ****   -0.1400 
     14 H1          3.6150   -5.2150   -0.9730 H       1     ****    0.3850 
     15 H2          5.7700   -6.5690   -1.6140 H       1     ****    0.1320 
     16 H3          5.6930   -8.3710   -1.1690 H       1     ****    0.1300 
     17 H4          3.5340   -8.8280    0.5850 H       1     ****    0.0970 
     18 H5          2.8360   -9.1210   -1.0590 H       1     ****    0.1020 
     19 H6          2.2240   -3.7580   -1.2710 H       1     ****    0.1470 
     20 H7          0.6370   -1.9290   -1.0410 H       1     ****    0.1320 
     21 H8         -1.5020   -2.2520    0.1700 H       1     ****    0.1330 
     22 H9         -2.0290   -4.4620    1.1630 H       1     ****    0.1350 
     23 H10        -0.4680   -6.3150    0.9730 H       1     ****    0.1640 
@<TRIPOS>BOND
     1  2 1 2
     2  3 2 1
     3  4 3 1
     4  5 4 1
     5  6 5 2
     6  7 2 1
     7  7 5 1
     8  8 4 1
     9  9 8 ar
    10 10 9 ar
    11 11 10 ar
    12 12 11 ar
    13 13 8 ar
    14 13 12 ar
    15 14 3 1
    16 15 1 1
    17 16 1 1
    18 17 7 1
    19 18 7 1
    20 19 9 1
    21 20 10 1
    22 21 11 1
    23 22 12 1
    24 23 13 1
@<TRIPOS>SUBSTRUCTURE
1     ****    1
@<TRIPOS>MOLECULE
ZINC00003182
16 16 1 0 0 
SMALL
USER_CHARGES


@<TRIPOS>ATOM
      1 C1          6.9780   -8.0820   -0.8370 C.3     1     ****   -0.1470 
      2 C2          5.6100   -8.1770   -0.2420 C.ar    1     ****    0.2940 
      3 C3          5.0300   -9.4060    0.0180 C.ar    1     ****    0.2820 
      4 N1          3.7970   -9.5290    0.5540 N.ar    1     ****   -0.6290 
      5 C4          3.1430   -8.3800    0.8320 C.ar    1     ****    0.2940 
      6 C5          3.7230   -7.1510    0.5720 C.ar    1     ****    0.2820 
      7 N2          4.9560   -7.0280    0.0350 N.ar    1     ****   -0.6290 
      8 C6          1.7750   -8.4740    1.4270 C.3     1     ****   -0.1470 
      9 H1          7.0000   -8.5710   -1.8160 H       1     ****    0.0520 
     10 H2          7.2730   -7.0370   -0.9720 H       1     ****    0.0660 
     11 H3          7.7110   -8.5610   -0.1800 H       1     ****    0.0520 
     12 H4          5.5390  -10.3380   -0.1980 H       1     ****    0.0310 
     13 H5          3.2140   -6.2180    0.7870 H       1     ****    0.0310 
     14 H6          1.4800   -9.5200    1.5610 H       1     ****    0.0660 
     15 H7          1.7530   -7.9860    2.4060 H       1     ****    0.0520 
     16 H8          1.0420   -7.9960    0.7700 H       1     ****    0.0520 
@<TRIPOS>BOND
     1  2 1 1
     2  3 2 ar
     3  4 3 ar
     4  5 4 ar
     5  6 5 ar
     6  7 2 ar
     7  7 6 ar
     8  8 5 1
     9  9 1 1
    10 10 1 1
    11 11 1 1
    12 12 3 1
    13 13 6 1
    14 14 8 1
    15 15 8 1
    16 16 8 1
@<TRIPOS>SUBSTRUCTURE
1     ****    1
@<TRIPOS>MOLECULE
ZINC00004161
20 20 1 0 0 
SMALL
USER_CHARGES


@<TRIPOS>ATOM
      1 C1         -1.7230    2.8460    2.2600 C.3     1     ****   -0.0850 
      2 C2         -0.6970    2.5970    3.3710 C.3     1     ****   -0.0730 
      3 C3          0.6420    2.3770    2.6500 C.3     1     ****   -0.1610 
      4 C4          0.4990    3.1260    1.3350 C.3     1     ****    0.1630 
      5 C5         -0.9460    2.8180    0.9430 C.3     1     ****   -0.1190 
      6 C6          1.8430    2.8590    3.4880 C.2     1     ****    0.8910 
      7 O1          1.7490    2.6570    4.7310 O.co2   1     ****   -0.5860 
      8 H1          0.4710    5.1090    0.6680 H       1     ****    0.3640 
      9 H2          0.0200    4.9640    2.2600 H       1     ****    0.3610 
     10 H3         -2.1980    3.8230    2.4050 H       1     ****    0.0450 
     11 H4         -2.5180    2.0930    2.2660 H       1     ****    0.0520 
     12 H5         -0.6690    3.4550    4.0530 H       1     ****    0.0600 
     13 H6         -0.9710    1.7190    3.9670 H       1     ****    0.0650 
     14 H7          0.7460    1.2880    2.4980 H       1     ****    0.0880 
     15 H8          1.1940    2.8110    0.5430 H       1     ****    0.0650 
     16 H9         -1.0030    1.8120    0.5110 H       1     ****    0.0530 
     17 H10        -1.3570    3.5190    0.2090 H       1     ****    0.0490 
     18 N1          0.6480    4.5890    1.5370 N.4     1     ****   -1.1330 
     19 H11         1.6130    4.8060    1.8280 H       1     ****    0.4550 
     20 O2          2.7920    3.3780    2.8340 O.co2   1     ****   -0.5550 
@<TRIPOS>BOND
     1  2 1 1
     2  3 2 1
     3  4 3 1
     4  5 1 1
     5  5 4 1
     6  6 3 1
     7  7 6 1
     8 10 1 1
     9 11 1 1
    10 12 2 1
    11 13 2 1
    12 14 3 1
    13 15 4 1
    14 16 5 1
    15 17 5 1
    16 18 4 1
    17 18 8 1
    18 18 9 1
    19 19 18 1
    20 20 6 2
@<TRIPOS>SUBSTRUCTURE
1     ****    1
@<TRIPOS>MOLECULE
ZINC00004184
39 41 1 0 0 
SMALL
USER_CHARGES


@<TRIPOS>ATOM
      1 C1          5.8880   -7.6920    2.0420 C.2     1     ****   -0.1540 
      2 C2          4.7370   -6.8880    1.8050 C.2     1     ****   -0.1100 
      3 C3          4.7090   -6.3230    0.5370 C.2     1     ****   -0.2400 
      4 S1          6.1110   -6.8070   -0.3470 S.2     1     ****    0.0900 
      5 C4          6.7190   -7.7320    0.9500 C.2     1     ****   -0.1310 
      6 C5          3.6280   -5.4030   -0.0700 C.3     1     ****    0.2610 
      7 C6          2.2140   -5.9040    0.3900 C.3     1     ****   -0.0950 
      8 C7          1.0330   -5.1580   -0.2350 C.3     1     ****   -0.0940 
      9 C8          1.0910   -5.1850   -1.7560 C.3     1     ****   -0.0910 
     10 C9          2.4390   -4.7100   -2.2800 C.3     1     ****   -0.0910 
     11 C10         3.5980   -5.4730   -1.6340 C.3     1     ****   -0.1080 
     12 C11         3.7510   -3.6750    1.8710 C.3     1     ****    0.1070 
     13 C12         3.6880   -2.1730    2.1700 C.3     1     ****   -0.0840 
     14 C13         4.6790   -1.3730    1.3830 C.2     1     ****   -0.1340 
     15 C14         5.3120   -1.8720    0.3140 C.2     1     ****   -0.2110 
     16 C15         5.0470   -3.2520   -0.2070 C.3     1     ****    0.1460 
     17 H1          6.0940   -8.2150    2.9680 H       1     ****    0.1800 
     18 H2          3.9640   -6.7330    2.5470 H       1     ****    0.1590 
     19 H3          7.6560   -8.2630    0.8520 H       1     ****    0.1990 
     20 H4          2.1170   -6.9670    0.1210 H       1     ****    0.0980 
     21 H5          2.0990   -5.8830    1.4780 H       1     ****    0.0620 
     22 H6          0.0970   -5.6230    0.0960 H       1     ****    0.0820 
     23 H7          1.0030   -4.1220    0.1200 H       1     ****    0.0290 
     24 H8          0.9090   -6.2090   -2.1060 H       1     ****    0.0670 
     25 H9          0.2900   -4.5620   -2.1700 H       1     ****    0.0730 
     26 H10         2.4730   -4.8550   -3.3670 H       1     ****    0.0820 
     27 H11         2.5460   -3.6330   -2.1110 H       1     ****    0.0310 
     28 H12         4.5350   -5.1220   -2.0790 H       1     ****    0.0620 
     29 H13         3.5110   -6.5260   -1.9400 H       1     ****    0.0980 
     30 H14         2.8650   -4.1600    2.2830 H       1     ****    0.0970 
     31 H15         4.6580   -4.1210    2.2910 H       1     ****    0.1120 
     32 H16         2.6820   -1.7920    1.9550 H       1     ****    0.0830 
     33 H17         3.8670   -2.0210    3.2400 H       1     ****    0.1060 
     34 H18         4.8850   -0.3560    1.7050 H       1     ****    0.1710 
     35 H19         6.0360   -1.2610   -0.2160 H       1     ****    0.1760 
     36 H20         5.8970   -3.8940    0.0320 H       1     ****    0.1120 
     37 H21         4.9170   -3.1850   -1.2900 H       1     ****    0.1020 
     38 N1          3.7800   -3.8800    0.3550 N.4     1     ****   -0.6830 
     39 H22         2.9580   -3.3470    0.0220 H       1     ****    0.4440 
@<TRIPOS>BOND
     1  2 1 1
     2  3 2 2
     3  4 3 1
     4  5 1 2
     5  5 4 1
     6  6 3 1
     7  7 6 1
     8  8 7 1
     9  9 8 1
    10 10 9 1
    11 11 6 1
    12 11 10 1
    13 13 12 1
    14 14 13 1
    15 15 14 2
    16 16 15 1
    17 17 1 1
    18 18 2 1
    19 19 5 1
    20 20 7 1
    21 21 7 1
    22 22 8 1
    23 23 8 1
    24 24 9 1
    25 25 9 1
    26 26 10 1
    27 27 10 1
    28 28 11 1
    29 29 11 1
    30 30 12 1
    31 31 12 1
    32 32 13 1
    33 33 13 1
    34 34 14 1
    35 35 15 1
    36 36 16 1
    37 37 16 1
    38 38 6 1
    39 38 12 1
    40 38 16 1
    41 39 38 1
@<TRIPOS>SUBSTRUCTURE
1     ****    1
@<TRIPOS>MOLECULE
ZINC00004316
16 16 1 0 0 
SMALL
USER_CHARGES


@<TRIPOS>ATOM
      1 C1          5.9610   -9.1550   -0.4430 C.ar    1     ****   -0.1310 
      2 C2          5.1520  -10.0580    0.2370 C.ar    1     ****   -0.1330 
      3 C3          3.9760   -9.6150    0.8420 C.ar    1     ****   -0.1600 
      4 C4          3.5960   -8.2640    0.7870 C.ar    1     ****    0.0790 
      5 C5          4.3890   -7.3590    0.0520 C.ar    1     ****    0.0850 
      6 C6          5.5840   -7.8150   -0.5290 C.ar    1     ****   -0.1620 
      7 N1          4.0660   -6.0070   -0.0380 N.pl3   1     ****   -0.8040 
      8 N2          2.4000   -7.8740    1.3850 N.pl3   1     ****   -0.8030 
      9 H1          4.6170   -5.4030   -0.6340 H       1     ****    0.3750 
     10 H2          3.1510   -5.6860    0.2430 H       1     ****    0.3820 
     11 H3          2.1810   -6.8930    1.4830 H       1     ****    0.3810 
     12 H4          1.8960   -8.5320    1.9650 H       1     ****    0.3740 
     13 H5          6.8830   -9.4910   -0.9090 H       1     ****    0.1300 
     14 H6          5.4360  -11.1040    0.2990 H       1     ****    0.1300 
     15 H7          3.3570  -10.3360    1.3720 H       1     ****    0.1280 
     16 H8          6.2280   -7.1230   -1.0670 H       1     ****    0.1290 
@<TRIPOS>BOND
     1  2 1 ar
     2  3 2 ar
     3  4 3 ar
     4  5 4 ar
     5  6 1 ar
     6  6 5 ar
     7  7 5 1
     8  8 4 1
     9  9 7 1
    10 10 7 1
    11 11 8 1
    12 12 8 1
    13 13 1 1
    14 14 2 1
    15 15 3 1
    16 16 6 1
@<TRIPOS>SUBSTRUCTURE
1     ****    1
@<TRIPOS>MOLECULE
ZINC00004726
17 17 1 0 0 
SMALL
USER_CHARGES


@<TRIPOS>ATOM
      1 C1          4.3480   -6.7380   -0.7830 C.ar    1     ****   -0.0120 
      2 C2          3.8660   -5.5370   -0.2630 C.ar    1     ****   -0.1540 
      3 C3          2.6280   -5.0470   -0.6800 C.ar    1     ****    0.0750 
      4 C4          1.8640   -5.7500   -1.6140 C.ar    1     ****   -0.1540 
      5 C5          2.3420   -6.9520   -2.1360 C.ar    1     ****   -0.0080 
      6 C6          3.5840   -7.4330   -1.7220 C.ar    1     ****   -0.3840 
      7 S1          4.1780   -8.9720   -2.3600 S.o2    1     ****    1.5300 
      8 O1          5.1090   -9.5200   -1.3940 O.3     1     ****   -0.6570 
      9 O2          3.0340   -9.7400   -2.8070 O.3     1     ****   -0.6570 
     10 N1          5.0490   -8.4420   -3.7300 N.3     1     ****   -1.0280 
     11 CL1         2.0350   -3.5640   -0.0360 Cl      1     ****   -0.0760 
     12 H1          4.6470   -8.7270   -4.6320 H       1     ****    0.4500 
     13 H2          5.3160   -7.4500   -3.7440 H       1     ****    0.4470 
     14 H3          5.3130   -7.1100   -0.4510 H       1     ****    0.1620 
     15 H4          4.4630   -4.9940    0.4660 H       1     ****    0.1560 
     16 H5          0.8980   -5.3730   -1.9390 H       1     ****    0.1560 
     17 H6          1.7380   -7.4900   -2.8620 H       1     ****    0.1550 
@<TRIPOS>BOND
     1  2 1 ar
     2  3 2 ar
     3  4 3 ar
     4  5 4 ar
     5  6 1 ar
     6  6 5 ar
     7  7 6 1
     8  8 7 1
     9  9 7 1
    10 10 7 1
    11 11 3 1
    12 12 10 1
    13 13 10 1
    14 14 1 1
    15 15 2 1
    16 16 4 1
    17 17 5 1
@<TRIPOS>SUBSTRUCTURE
1     ****    1
@<TRIPOS>MOLECULE
ZINC00004778
34 37 1 0 0 
SMALL
USER_CHARGES


@<TRIPOS>ATOM
      1 C1          6.3980   -7.6100   -0.3790 C.3     1     ****   -0.0620 
      2 C2          6.6750   -7.0710    1.0020 C.ar    1     ****   -0.0700 
      3 C3          7.3540   -7.8960    1.8980 C.ar    1     ****   -0.2340 
      4 C4          7.6230   -7.4040    3.1510 C.ar    1     ****    0.3950 
      5 N1          7.2670   -6.1720    3.5550 N.ar    1     ****   -0.6660 
      6 C5          6.5910   -5.3430    2.7030 C.ar    1     ****    0.5810 
      7 C6          6.2790   -5.7680    1.4060 C.ar    1     ****   -0.0410 
      8 N2          5.6950   -4.9490    0.4220 N.am    1     ****   -0.4590 
      9 C7          4.9760   -3.7850    0.5000 C.2     1     ****    0.7360 
     10 O1          4.7000   -3.1640   -0.5300 O.2     1     ****   -0.6370 
     11 C8          4.4160   -3.2990    1.7700 C.ar    1     ****   -0.2560 
     12 C9          3.1850   -2.6230    1.6790 C.ar    1     ****   -0.0320 
     13 C10         2.6130   -2.0360    2.7970 C.ar    1     ****   -0.2730 
     14 C11         3.3090   -2.1310    3.9780 C.ar    1     ****    0.4380 
     15 N3          4.4920   -2.7680    4.0960 N.ar    1     ****   -0.6900 
     16 C12         5.0510   -3.3740    3.0040 C.ar    1     ****    0.6480 
     17 N4          6.2860   -4.0430    3.1900 N.pl3   1     ****   -0.6900 
     18 C13         7.1040   -3.5730    4.3470 C.3     1     ****    0.1350 
     19 C14         8.5880   -3.3290    4.2190 C.3     1     ****   -0.1180 
     20 C15         7.6590   -2.1700    4.4050 C.3     1     ****   -0.1190 
     21 H1          5.8060   -5.2690   -0.5350 H       1     ****    0.3310 
     22 H2          7.0060   -7.0820   -1.1200 H       1     ****    0.0500 
     23 H3          6.6380   -8.6760   -0.4500 H       1     ****    0.0520 
     24 H4          5.3370   -7.5050   -0.6270 H       1     ****    0.0570 
     25 H5          7.6720   -8.8970    1.6240 H       1     ****    0.1480 
     26 H6          8.1520   -8.0000    3.8870 H       1     ****    0.0280 
     27 H7          2.6600   -2.5430    0.7300 H       1     ****    0.1620 
     28 H8          1.6660   -1.5140    2.7380 H       1     ****    0.1520 
     29 H9          2.9290   -1.6860    4.8910 H       1     ****    0.0280 
     30 H10         6.7590   -3.9980    5.2860 H       1     ****    0.0980 
     31 H11         9.2170   -3.6160    5.0530 H       1     ****    0.0730 
     32 H12         9.0500   -3.4520    3.2470 H       1     ****    0.0790 
     33 H13         7.4980   -1.5150    3.5580 H       1     ****    0.0810 
     34 H14         7.6570   -1.6700    5.3650 H       1     ****    0.0730 
@<TRIPOS>BOND
     1  2 1 1
     2  3 2 ar
     3  4 3 ar
     4  5 4 ar
     5  6 5 ar
     6  7 2 ar
     7  7 6 ar
     8  8 7 1
     9  9 8 1
    10 10 9 2
    11 11 9 1
    12 12 11 ar
    13 13 12 ar
    14 14 13 ar
    15 15 14 ar
    16 16 11 ar
    17 16 15 ar
    18 17 6 1
    19 17 16 1
    20 18 17 1
    21 19 18 1
    22 20 18 1
    23 20 19 1
    24 21 8 1
    25 22 1 1
    26 23 1 1
    27 24 1 1
    28 25 3 1
    29 26 4 1
    30 27 12 1
    31 28 13 1
    32 29 14 1
    33 30 18 1
    34 31 19 1
    35 32 19 1
    36 33 20 1
    37 34 20 1
@<TRIPOS>SUBSTRUCTURE
1     ****    1
@<TRIPOS>MOLECULE
ZINC00004785
30 32 1 0 0 
SMALL
USER_CHARGES


@<TRIPOS>ATOM
      1 C1          5.5700   -7.6620    0.7640 C.ar    1     ****   -0.1350 
      2 C2          5.6010   -7.2830    2.0980 C.ar    1     ****   -0.1160 
      3 C3          5.0920   -6.0410    2.4800 C.ar    1     ****   -0.1200 
      4 C4          4.5340   -5.1540    1.5370 C.ar    1     ****    0.0810 
      5 C5          4.4990   -5.5480    0.1850 C.ar    1     ****   -0.0540 
      6 C6          5.0290   -6.7980   -0.1870 C.ar    1     ****   -0.1130 
      7 C7          4.0430   -4.6770   -0.9020 C.2     1     ****   -0.0940 
      8 C8          3.0080   -3.8330   -0.8320 C.2     1     ****   -0.1260 
      9 C9          2.1580   -3.6470    0.3460 C.ar    1     ****   -0.0390 
     10 C10         0.7970   -3.3760    0.1130 C.ar    1     ****   -0.1150 
     11 C11        -0.0770   -3.1210    1.1690 C.ar    1     ****   -0.1330 
     12 C12         0.3980   -3.1240    2.4730 C.ar    1     ****   -0.1200 
     13 C13         1.7480   -3.3750    2.7180 C.ar    1     ****   -0.1450 
     14 C14         2.6500   -3.6300    1.6640 C.ar    1     ****    0.0500 
     15 N1          4.0260   -3.8860    1.9880 N.am    1     ****   -0.3140 
     16 C15         4.7640   -3.1110    2.9130 C.2     1     ****    0.7660 
     17 O1          5.8370   -3.4400    3.4230 O.2     1     ****   -0.6260 
     18 N2          4.2590   -1.8490    3.1650 N.am    1     ****   -0.6450 
     19 H1          4.7470   -1.2300    3.8030 H       1     ****    0.3150 
     20 H2          3.4680   -1.4580    2.6690 H       1     ****    0.3020 
     21 H3          5.9690   -8.6250    0.4590 H       1     ****    0.1340 
     22 H4          6.0170   -7.9520    2.8460 H       1     ****    0.1360 
     23 H5          5.1090   -5.7910    3.5390 H       1     ****    0.1560 
     24 H6          5.0280   -7.1100   -1.2300 H       1     ****    0.1330 
     25 H7          4.5800   -4.7590   -1.8440 H       1     ****    0.1300 
     26 H8          2.7410   -3.2620   -1.7180 H       1     ****    0.1290 
     27 H9          0.4020   -3.3620   -0.9010 H       1     ****    0.1370 
     28 H10        -1.1260   -2.9210    0.9700 H       1     ****    0.1370 
     29 H11        -0.2790   -2.9340    3.3010 H       1     ****    0.1380 
     30 H12         2.0860   -3.3950    3.7520 H       1     ****    0.1500 
@<TRIPOS>BOND
     1  2 1 ar
     2  3 2 ar
     3  4 3 ar
     4  5 4 ar
     5  6 1 ar
     6  6 5 ar
     7  7 5 1
     8  8 7 2
     9  9 8 1
    10 10 9 ar
    11 11 10 ar
    12 12 11 ar
    13 13 12 ar
    14 14 9 ar
    15 14 13 ar
    16 15 4 1
    17 15 14 1
    18 16 15 1
    19 17 16 2
    20 18 16 1
    21 19 18 1
    22 20 18 1
    23 21 1 1
    24 22 2 1
    25 23 3 1
    26 24 6 1
    27 25 7 1
    28 26 8 1
    29 27 10 1
    30 28 11 1
    31 29 12 1
    32 30 13 1
@<TRIPOS>SUBSTRUCTURE
1     ****    1
@<TRIPOS>MOLECULE
ZINC00005003
24 24 1 0 0 
SMALL
USER_CHARGES


@<TRIPOS>ATOM
      1 C1          5.6870   -8.9550   -0.9710 C.3     1     ****   -0.1140 
      2 C2          5.4090   -9.8970    0.1980 C.3     1     ****   -0.0980 
      3 C3          4.8260   -9.1630    1.4050 C.3     1     ****   -0.1130 
      4 C4          3.5800   -8.3570    1.0110 C.3     1     ****    0.0890 
      5 C5          3.8460   -7.3770   -0.1510 C.3     1     ****    0.1040 
      6 C6          4.4530   -8.1320   -1.3460 C.3     1     ****   -0.1100 
      7 H1          5.0380   -5.7120   -0.5460 H       1     ****    0.4970 
      8 H2          4.3800   -5.6680    0.9580 H       1     ****    0.4550 
      9 H3          2.2780   -7.0310    1.9830 H       1     ****    0.4750 
     10 H4          2.7750   -8.2870    2.9270 H       1     ****    0.4980 
     11 H5          6.0120   -9.5390   -1.8400 H       1     ****    0.1320 
     12 H6          6.5180   -8.2880   -0.7150 H       1     ****    0.0510 
     13 H7          4.7070  -10.6760   -0.1240 H       1     ****    0.0910 
     14 H8          6.3350  -10.4060    0.4890 H       1     ****    0.1210 
     15 H9          4.5660   -9.8960    2.1780 H       1     ****    0.1110 
     16 H10         5.5930   -8.5100    1.8400 H       1     ****    0.0590 
     17 H11         2.8120   -9.0810    0.6890 H       1     ****    0.1630 
     18 H12         2.9030   -6.9150   -0.4880 H       1     ****    0.1300 
     19 H13         4.7120   -7.4300   -2.1480 H       1     ****    0.1080 
     20 H14         3.6920   -8.8070   -1.7580 H       1     ****    0.1200 
     21 N1          4.7890   -6.3040    0.2610 N.4     1     ****   -0.8520 
     22 H15         5.6750   -6.6610    0.6420 H       1     ****    0.4780 
     23 N2          3.0900   -7.6260    2.2020 N.4     1     ****   -0.8530 
     24 H16         3.8070   -7.0350    2.6420 H       1     ****    0.4570 
@<TRIPOS>BOND
     1  2 1 1
     2  3 2 1
     3  4 3 1
     4  5 4 1
     5  6 1 1
     6  6 5 1
     7 11 1 1
     8 12 1 1
     9 13 2 1
    10 14 2 1
    11 15 3 1
    12 16 3 1
    13 17 4 1
    14 18 5 1
    15 19 6 1
    16 20 6 1
    17 21 5 1
    18 21 7 1
    19 21 8 1
    20 22 21 1
    21 23 4 1
    22 23 9 1
    23 23 10 1
    24 24 23 1
@<TRIPOS>SUBSTRUCTURE
1     ****    1
@<TRIPOS>MOLECULE
ZINC00005147
44 46 1 0 0 
SMALL
USER_CHARGES


@<TRIPOS>ATOM
      1 C1          5.7480   -9.8490    0.5570 C.3     1     ****   -0.0900 
      2 C2          5.7080  -10.5230    1.9150 C.3     1     ****   -0.0900 
      3 C3          6.2950   -9.6000    2.9680 C.3     1     ****   -0.1090 
      4 C4          5.5850   -8.2220    3.0730 C.3     1     ****    0.1330 
      5 C5          5.4290   -7.5440    1.6650 C.3     1     ****    0.1310 
      6 C6          4.9430   -8.5630    0.5960 C.3     1     ****   -0.1080 
      7 C7          4.8780   -5.2600    0.7340 C.3     1     ****    0.0040 
      8 C8          3.7790   -4.2750    0.4230 C.2     1     ****    0.6850 
      9 O1          3.8260   -3.5520   -0.5710 O.2     1     ****   -0.4500 
     10 N1          2.7520   -4.2010    1.3500 N.am    1     ****   -0.5840 
     11 C9          2.6360   -4.8940    2.5450 C.2     1     ****    0.6900 
     12 O2          1.7060   -4.7170    3.3290 O.2     1     ****   -0.4680 
     13 C10         3.7740   -5.8340    2.8670 C.3     1     ****   -0.0130 
     14 C11         5.7290   -7.0940    5.3680 C.3     1     ****   -0.0050 
     15 C12         6.6770   -6.5930    6.4270 C.2     1     ****    0.6860 
     16 O3          6.4130   -6.6930    7.6240 O.2     1     ****   -0.4530 
     17 N2          7.8230   -5.9640    5.9670 N.am    1     ****   -0.5850 
     18 C13         8.2080   -5.7340    4.6560 C.2     1     ****    0.6890 
     19 O4          9.2200   -5.0970    4.3680 O.2     1     ****   -0.4650 
     20 C14         7.2820   -6.2580    3.5860 C.3     1     ****   -0.0050 
     21 H1          2.0080   -3.5410    1.1420 H       1     ****    0.4020 
     22 H2          8.4490   -5.6060    6.6820 H       1     ****    0.4020 
     23 H3          5.3320  -10.5230   -0.2010 H       1     ****    0.1220 
     24 H4          6.7840   -9.6360    0.2670 H       1     ****    0.0770 
     25 H5          4.6770  -10.7870    2.1800 H       1     ****    0.0790 
     26 H6          6.2810  -11.4560    1.8820 H       1     ****    0.1220 
     27 H7          6.2540  -10.1040    3.9420 H       1     ****    0.0970 
     28 H8          7.3580   -9.4490    2.7370 H       1     ****    0.0820 
     29 H9          4.5870   -8.4190    3.4970 H       1     ****    0.1200 
     30 H10         6.4110   -7.1800    1.3210 H       1     ****    0.1190 
     31 H11         4.9740   -8.0980   -0.3970 H       1     ****    0.0940 
     32 H12         3.8930   -8.8240    0.7850 H       1     ****    0.0830 
     33 H13         5.7010   -4.7520    1.2440 H       1     ****    0.1280 
     34 H14         5.2260   -5.7050   -0.2030 H       1     ****    0.1580 
     35 H15         3.3690   -6.6660    3.4460 H       1     ****    0.1350 
     36 H16         4.5280   -5.2710    3.4150 H       1     ****    0.1080 
     37 H17         4.9640   -6.3400    5.1890 H       1     ****    0.1210 
     38 H18         5.2720   -8.0260    5.7160 H       1     ****    0.1590 
     39 H19         7.8980   -6.6350    2.7640 H       1     ****    0.1480 
     40 H20         6.6330   -5.4500    3.2550 H       1     ****    0.1000 
     41 N3          4.3990   -6.3940    1.6240 N.4     1     ****   -0.7020 
     42 H21         3.5890   -6.7840    1.1210 H       1     ****    0.4760 
     43 N4          6.4380   -7.4050    4.0710 N.4     1     ****   -0.7020 
     44 H22         7.1560   -8.0750    4.3840 H       1     ****    0.4800 
@<TRIPOS>BOND
     1  2 1 1
     2  3 2 1
     3  4 3 1
     4  5 4 1
     5  6 1 1
     6  6 5 1
     7  8 7 1
     8  9 8 2
     9 10 8 1
    10 11 10 1
    11 12 11 2
    12 13 11 1
    13 15 14 1
    14 16 15 2
    15 17 15 1
    16 18 17 1
    17 19 18 2
    18 20 18 1
    19 21 10 1
    20 22 17 1
    21 23 1 1
    22 24 1 1
    23 25 2 1
    24 26 2 1
    25 27 3 1
    26 28 3 1
    27 29 4 1
    28 30 5 1
    29 31 6 1
    30 32 6 1
    31 33 7 1
    32 34 7 1
    33 35 13 1
    34 36 13 1
    35 37 14 1
    36 38 14 1
    37 39 20 1
    38 40 20 1
    39 41 5 1
    40 41 7 1
    41 41 13 1
    42 42 41 1
    43 43 4 1
    44 43 14 1
    45 43 20 1
    46 44 43 1
@<TRIPOS>SUBSTRUCTURE
1     ****    1
@<TRIPOS>MOLECULE
ZINC00005284
15 15 1 0 0 
SMALL
USER_CHARGES


@<TRIPOS>ATOM
      1 C1          3.4670   -7.3930   -1.6270 C.ar    1     ****   -0.1090 
      2 C2          2.4000   -6.5050   -1.4800 C.ar    1     ****   -0.2600 
      3 C3          1.7880   -6.3800   -0.2340 C.ar    1     ****    0.3450 
      4 N1          2.2050   -7.1030    0.8370 N.ar    1     ****   -0.6770 
      5 C4          3.2430   -7.9560    0.6610 C.ar    1     ****    0.3770 
      6 C5          3.9150   -8.1470   -0.5410 C.ar    1     ****   -0.2540 
      7 C6          5.0590   -9.1130   -0.6610 C.2     1     ****    0.9110 
      8 O1          5.6130   -9.2210   -1.8000 O.co2   1     ****   -0.8640 
      9 C7          0.6300   -5.4280   -0.0390 C.2     1     ****    0.8080 
     10 O2          0.2460   -4.7560   -1.0470 O.co2   1     ****   -0.8680 
     11 H1          3.9400   -7.4850   -2.6010 H       1     ****    0.1270 
     12 H2          2.0670   -5.9280   -2.3370 H       1     ****    0.1390 
     13 H3          3.5220   -8.4990    1.5590 H       1     ****    0.0100 
     14 O3          5.3920   -9.7520    0.3860 O.co2   1     ****   -0.8610 
     15 O4          0.1230   -5.3690    1.1250 O.co2   1     ****   -0.8250 
@<TRIPOS>BOND
     1  2 1 ar
     2  3 2 ar
     3  4 3 ar
     4  5 4 ar
     5  6 1 ar
     6  6 5 ar
     7  7 6 1
     8  8 7 1
     9  9 3 1
    10 10 9 1
    11 11 1 1
    12 12 2 1
    13 13 5 1
    14 14 7 2
    15 15 9 2
@<TRIPOS>SUBSTRUCTURE
1     ****    1
@<TRIPOS>MOLECULE
ZINC00005467
14 14 1 0 0 
SMALL
USER_CHARGES


@<TRIPOS>ATOM
      1 C1          4.8490   -9.0720   -4.6360 C.1     1     ****   -0.1110 
      2 C2          4.6730   -9.1290   -3.4500 C.1     1     ****   -0.1530 
      3 C3          4.4640   -9.1930   -2.0440 C.2     1     ****   -0.1130 
      4 C4          4.5670  -10.3510   -1.3800 C.2     1     ****    0.0660 
      5 N1          4.3730  -10.4460   -0.0290 N.am    1     ****   -0.4670 
      6 C5          4.0540   -9.3650    0.7710 C.2     1     ****    0.8030 
      7 O1          3.8810   -9.4620    1.9850 O.2     1     ****   -0.6310 
      8 N2          3.9450   -8.1560    0.0920 N.am    1     ****   -0.5860 
      9 C6          4.1240   -7.9640   -1.2690 C.2     1     ****    0.7250 
     10 O2          4.0120   -6.8670   -1.8100 O.2     1     ****   -0.5880 
     11 H1          4.4670  -11.3580    0.4080 H       1     ****    0.3580 
     12 H2          3.7120   -7.3390    0.6460 H       1     ****    0.3570 
     13 H3          5.0040   -9.0210   -5.6890 H       1     ****    0.1720 
     14 H4          4.8120  -11.2860   -1.8740 H       1     ****    0.1710 
@<TRIPOS>BOND
     1  2 1 3
     2  3 2 1
     3  4 3 2
     4  5 4 1
     5  6 5 1
     6  7 6 2
     7  8 6 1
     8  9 3 1
     9  9 8 1
    10 10 9 2
    11 11 5 1
    12 12 8 1
    13 13 1 1
    14 14 4 1
@<TRIPOS>SUBSTRUCTURE
1     ****    1
@<TRIPOS>MOLECULE
ZINC00005584
48 51 1 0 0 
SMALL
USER_CHARGES


@<TRIPOS>ATOM
      1 C1          5.1060    4.2260   -0.5080 C.3     1     ****   -0.0960 
      2 C2          4.3050    4.8810   -1.6670 C.3     1     ****   -0.0330 
      3 C3          2.7970    4.8240   -1.2830 C.3     1     ****   -0.0730 
      4 C4          2.2750    6.0210   -0.4820 C.3     1     ****   -0.1810 
      5 C5          3.3370    6.8350    0.2070 C.2     1     ****    0.4750 
      6 O1          3.2160    7.3220    1.3210 O.2     1     ****   -0.4730 
      7 C6          4.5920    7.1170   -0.5870 C.2     1     ****    0.4740 
      8 C7          4.7150    6.3690   -1.8930 C.3     1     ****   -0.1530 
      9 C8          6.1330    6.5400   -2.4870 C.3     1     ****   -0.0700 
     10 C9          6.3740    5.6740   -3.7380 C.3     1     ****   -0.0720 
     11 C10         6.0280    4.2170   -3.4120 C.3     1     ****   -0.0470 
     12 C11         4.5340    4.1360   -3.0260 C.3     1     ****   -0.0550 
     13 C12         4.0870    2.6590   -3.0610 C.3     1     ****   -0.0720 
     14 C13         4.1300    2.1130   -4.5160 C.3     1     ****   -0.0600 
     15 C14         5.1800    2.8010   -5.4220 C.3     1     ****   -0.1470 
     16 C15         6.3620    3.2000   -4.5210 C.3     1     ****   -0.0570 
     17 C16         7.4970    3.4360   -5.5170 C.3     1     ****   -0.0720 
     18 C17         7.3520    2.2290   -6.4760 C.3     1     ****   -0.1890 
     19 C18         5.8680    1.8790   -6.3890 C.2     1     ****    0.5730 
     20 O2          5.3280    0.9960   -7.0400 O.2     1     ****   -0.5180 
     21 C19         4.5540    3.9490   -6.2420 C.3     1     ****   -0.0830 
     22 O3          5.3840    7.9420   -0.1590 O.2     1     ****   -0.4720 
     23 H1          4.0390    6.8100   -2.6470 H       1     ****    0.0750 
     24 H2          4.9420    3.1440   -0.4700 H       1     ****    0.0450 
     25 H3          6.1820    4.3970   -0.5800 H       1     ****    0.0470 
     26 H4          4.8000    4.6120    0.4710 H       1     ****    0.0410 
     27 H5          2.1780    4.7540   -2.1880 H       1     ****    0.0510 
     28 H6          2.5890    3.9040   -0.7210 H       1     ****    0.0560 
     29 H7          1.7370    6.7050   -1.1510 H       1     ****    0.0680 
     30 H8          1.5540    5.6740    0.2670 H       1     ****    0.0780 
     31 H9          6.2960    7.5930   -2.7490 H       1     ****    0.0590 
     32 H10         6.8920    6.2980   -1.7320 H       1     ****    0.0550 
     33 H11         5.7700    6.0510   -4.5700 H       1     ****    0.0440 
     34 H12         7.4260    5.7690   -4.0290 H       1     ****    0.0490 
     35 H13         6.6810    3.9850   -2.5530 H       1     ****    0.0530 
     36 H14         3.8910    4.6140   -3.7790 H       1     ****    0.0510 
     37 H15         4.7450    2.0460   -2.4340 H       1     ****    0.0440 
     38 H16         3.0720    2.5290   -2.6730 H       1     ****    0.0450 
     39 H17         4.3100    1.0320   -4.4660 H       1     ****    0.0570 
     40 H18         3.1330    2.2220   -4.9610 H       1     ****    0.0490 
     41 H19         6.7290    2.3320   -3.9310 H       1     ****    0.0490 
     42 H20         7.3750    4.3760   -6.0660 H       1     ****    0.0500 
     43 H21         8.4800    3.4490   -5.0380 H       1     ****    0.0530 
     44 H22         7.6330    2.4950   -7.4970 H       1     ****    0.0760 
     45 H23         7.9370    1.3760   -6.1190 H       1     ****    0.0760 
     46 H24         3.7200    3.5650   -6.8420 H       1     ****    0.0480 
     47 H25         4.1700    4.7860   -5.6650 H       1     ****    0.0440 
     48 H26         5.2690    4.3660   -6.9620 H       1     ****    0.0380 
@<TRIPOS>BOND
     1  2 1 1
     2  3 2 1
     3  4 3 1
     4  5 4 1
     5  6 5 2
     6  7 5 1
     7  8 2 1
     8  8 7 1
     9  9 8 1
    10 10 9 1
    11 11 10 1
    12 12 2 1
    13 12 11 1
    14 13 12 1
    15 14 13 1
    16 15 14 1
    17 16 11 1
    18 16 15 1
    19 17 16 1
    20 18 17 1
    21 19 15 1
    22 19 18 1
    23 20 19 2
    24 21 15 1
    25 22 7 2
    26 23 8 1
    27 24 1 1
    28 25 1 1
    29 26 1 1
    30 27 3 1
    31 28 3 1
    32 29 4 1
    33 30 4 1
    34 31 9 1
    35 32 9 1
    36 33 10 1
    37 34 10 1
    38 35 11 1
    39 36 12 1
    40 37 13 1
    41 38 13 1
    42 39 14 1
    43 40 14 1
    44 41 16 1
    45 42 17 1
    46 43 17 1
    47 44 18 1
    48 45 18 1
    49 46 21 1
    50 47 21 1
    51 48 21 1
@<TRIPOS>SUBSTRUCTURE
1     ****    1
@<TRIPOS>MOLECULE
ZINC00005774
16 16 1 0 0 
SMALL
USER_CHARGES


@<TRIPOS>ATOM
      1 C1          5.8940   -9.4430   -2.4000 C.ar    1     ****   -0.1590 
      2 C2          5.9740   -9.7290   -1.0360 C.ar    1     ****   -0.0590 
      3 C3          4.8450   -9.5650   -0.2280 C.ar    1     ****   -0.2120 
      4 C4          3.6380   -9.1170   -0.7710 C.ar    1     ****   -0.0290 
      5 C5          3.5710   -8.8340   -2.1370 C.ar    1     ****   -0.2110 
      6 C6          4.6940   -8.9950   -2.9540 C.ar    1     ****   -0.0410 
      7 C7          2.2950   -8.3620   -2.7040 C.2     1     ****    0.5760 
      8 O1          2.1660   -8.0960   -3.8910 O.2     1     ****   -0.5240 
      9 C8          4.9520   -9.8730    1.2090 C.2     1     ****    0.5760 
     10 O2          4.0040   -9.7530    1.9750 O.2     1     ****   -0.5240 
     11 H1          6.7680   -9.5690   -3.0320 H       1     ****    0.1440 
     12 H2          6.9160  -10.0770   -0.6210 H       1     ****    0.1380 
     13 H3          2.7630   -8.9910   -0.1390 H       1     ****    0.1580 
     14 H4          4.6500   -8.7770   -4.0180 H       1     ****    0.1590 
     15 H5          1.4520   -8.2590   -2.0000 H       1     ****    0.0050 
     16 H6          5.9350  -10.2220    1.5680 H       1     ****    0.0020 
@<TRIPOS>BOND
     1  2 1 ar
     2  3 2 ar
     3  4 3 ar
     4  5 4 ar
     5  6 1 ar
     6  6 5 ar
     7  7 5 1
     8  8 7 2
     9  9 3 1
    10 10 9 2
    11 11 1 1
    12 12 2 1
    13 13 4 1
    14 14 6 1
    15 15 7 1
    16 16 9 1
@<TRIPOS>SUBSTRUCTURE
1     ****    1
@<TRIPOS>MOLECULE
ZINC00005878
15 15 1 0 0 
SMALL
USER_CHARGES


@<TRIPOS>ATOM
      1 C1          6.4130   -9.4340    0.3880 C.ar    1     ****   -0.2550 
      2 C2          5.4040   -8.5370    0.0500 C.ar    1     ****   -0.0390 
      3 C3          4.2960   -8.9800   -0.6770 C.ar    1     ****   -0.2600 
      4 C4          4.2470  -10.3260   -1.0180 C.ar    1     ****    0.4210 
      5 N1          5.2130  -11.2230   -0.7030 N.ar    1     ****   -0.6700 
      6 C5          6.2720  -10.7530   -0.0100 C.ar    1     ****    0.4150 
      7 C6          3.2250   -8.0150   -1.0210 C.2     1     ****    0.6770 
      8 O1          3.1180   -6.9610   -0.4000 O.2     1     ****   -0.6110 
      9 N2          2.3920   -8.3510   -2.0630 N.am    1     ****   -0.6720 
     10 H1          1.6460   -7.7170   -2.3310 H       1     ****    0.3210 
     11 H2          2.4900   -9.1870   -2.6260 H       1     ****    0.3080 
     12 H3          7.2830   -9.1090    0.9470 H       1     ****    0.1510 
     13 H4          5.4980   -7.4980    0.3530 H       1     ****    0.1670 
     14 H5          3.4100  -10.7620   -1.5530 H       1     ****    0.0210 
     15 H6          7.0320  -11.4900    0.2290 H       1     ****    0.0270 
@<TRIPOS>BOND
     1  2 1 ar
     2  3 2 ar
     3  4 3 ar
     4  5 4 ar
     5  6 1 ar
     6  6 5 ar
     7  7 3 1
     8  8 7 2
     9  9 7 1
    10 10 9 1
    11 11 9 1
    12 12 1 1
    13 13 2 1
    14 14 4 1
    15 15 6 1
@<TRIPOS>SUBSTRUCTURE
1     ****    1
@<TRIPOS>MOLECULE
ZINC00006014
40 43 1 0 0 
SMALL
USER_CHARGES


@<TRIPOS>ATOM
      1 C1          4.6620  -11.5890    1.0930 C.ar    1     ****   -0.1260 
      2 C2          5.6920  -10.8590    0.5060 C.ar    1     ****   -0.1320 
      3 C3          5.4980   -9.5160    0.1720 C.ar    1     ****   -0.1170 
      4 C4          4.2700   -8.8820    0.4230 C.ar    1     ****   -0.0360 
      5 C5          3.2410   -9.6360    1.0120 C.ar    1     ****   -0.1080 
      6 C6          3.4360  -10.9780    1.3450 C.ar    1     ****   -0.1360 
      7 C7          4.0670   -7.4660    0.0730 C.ar    1     ****   -0.0610 
      8 C8          4.1350   -7.0620   -1.2730 C.ar    1     ****   -0.0770 
      9 C9          3.9400   -5.7280   -1.6370 C.ar    1     ****   -0.1610 
     10 C10         3.6740   -4.7700   -0.6630 C.ar    1     ****   -0.0480 
     11 C11         3.6070   -5.1540    0.6770 C.ar    1     ****   -0.2060 
     12 C12         3.8020   -6.4830    1.0490 C.ar    1     ****    0.1540 
     13 O1          3.7610   -6.8820    2.3630 O.3     1     ****   -0.2440 
     14 C13         3.4960   -5.9660    3.3830 C.2     1     ****    0.3640 
     15 C14         3.2880   -4.6660    3.1070 C.2     1     ****   -0.4120 
     16 C15         3.3330   -4.1630    1.7210 C.2     1     ****    0.6050 
     17 O2          3.1490   -2.9800    1.4680 O.2     1     ****   -0.5610 
     18 N1          3.4730   -6.5210    4.6760 N.3     1     ****   -0.6480 
     19 C16         3.1190   -5.7790    5.8980 C.3     1     ****    0.1660 
     20 C17         4.0550   -6.1740    7.0380 C.3     1     ****    0.1210 
     21 O3          4.0280   -7.5860    7.2490 O.3     1     ****   -0.4100 
     22 C18         4.4740   -8.2750    6.0800 C.3     1     ****    0.1200 
     23 C19         3.5530   -7.9780    4.9010 C.3     1     ****    0.1640 
     24 H1          4.8140  -12.6330    1.3520 H       1     ****    0.1320 
     25 H2          6.6500  -11.3330    0.3080 H       1     ****    0.1340 
     26 H3          6.3200   -8.9650   -0.2800 H       1     ****    0.1360 
     27 H4          2.2730   -9.1820    1.2150 H       1     ****    0.1410 
     28 H5          2.6300  -11.5460    1.8010 H       1     ****    0.1330 
     29 H6          4.3350   -7.7910   -2.0560 H       1     ****    0.1430 
     30 H7          3.9940   -5.4380   -2.6830 H       1     ****    0.1430 
     31 H8          3.5230   -3.7360   -0.9610 H       1     ****    0.1630 
     32 H9          3.0770   -3.9200    3.8620 H       1     ****    0.1660 
     33 H10         3.1820   -4.6960    5.7750 H       1     ****    0.0720 
     34 H11         2.0830   -6.0260    6.1620 H       1     ****    0.0480 
     35 H12         5.0850   -5.8570    6.8360 H       1     ****    0.0460 
     36 H13         3.7340   -5.6920    7.9670 H       1     ****    0.0770 
     37 H14         5.5090   -7.9870    5.8610 H       1     ****    0.0460 
     38 H15         4.4650   -9.3470    6.3000 H       1     ****    0.0770 
     39 H16         2.5430   -8.3480    5.1120 H       1     ****    0.0450 
     40 H17         3.9290   -8.5200    4.0270 H       1     ****    0.0870 
@<TRIPOS>BOND
     1  2 1 ar
     2  3 2 ar
     3  4 3 ar
     4  5 4 ar
     5  6 1 ar
     6  6 5 ar
     7  7 4 1
     8  8 7 ar
     9  9 8 ar
    10 10 9 ar
    11 11 10 ar
    12 12 7 ar
    13 12 11 ar
    14 13 12 1
    15 14 13 1
    16 15 14 2
    17 16 11 1
    18 16 15 1
    19 17 16 2
    20 18 14 1
    21 19 18 1
    22 20 19 1
    23 21 20 1
    24 22 21 1
    25 23 18 1
    26 23 22 1
    27 24 1 1
    28 25 2 1
    29 26 3 1
    30 27 5 1
    31 28 6 1
    32 29 8 1
    33 30 9 1
    34 31 10 1
    35 32 15 1
    36 33 19 1
    37 34 19 1
    38 35 20 1
    39 36 20 1
    40 37 22 1
    41 38 22 1
    42 39 23 1
    43 40 23 1
@<TRIPOS>SUBSTRUCTURE
1     ****    1
@<TRIPOS>MOLECULE
ZINC00006299
26 28 1 0 0 
SMALL
USER_CHARGES


@<TRIPOS>ATOM
      1 C1          1.2300   -3.6460   -2.5790 C.ar    1     ****   -0.1310 
      2 C2          0.3140   -2.8690   -1.8780 C.ar    1     ****   -0.1230 
      3 C3          0.7430   -1.8910   -0.9770 C.ar    1     ****   -0.0900 
      4 C4          2.1250   -1.7130   -0.7980 C.ar    1     ****   -0.0900 
      5 C5          3.0620   -2.4790   -1.4900 C.ar    1     ****    0.0900 
      6 C6          2.6040   -3.4610   -2.3940 C.ar    1     ****   -0.0780 
      7 N1          4.3850   -2.1850   -1.2040 N.2     1     ****   -0.5340 
      8 C7          4.4720   -1.2100   -0.3210 C.2     1     ****    0.4470 
      9 S1          2.9530   -0.6090    0.2260 S.2     1     ****   -0.0590 
     10 C8          5.7490   -0.6820    0.1930 C.ar    1     ****   -0.1750 
     11 C9          6.9150   -1.4490    0.0390 C.ar    1     ****   -0.0390 
     12 C10         8.1510   -0.9890    0.5060 C.ar    1     ****   -0.2070 
     13 C11         8.2590    0.2470    1.1460 C.ar    1     ****    0.1690 
     14 C12         7.1070    1.0240    1.2860 C.ar    1     ****   -0.2010 
     15 C13         5.8680    0.5670    0.8200 C.ar    1     ****   -0.0700 
     16 N2          9.4880    0.7140    1.5850 N.pl3   1     ****   -0.8280 
     17 H1         10.3080    0.1260    1.5260 H       1     ****    0.4000 
     18 H2          9.5510    1.5860    2.0920 H       1     ****    0.3990 
     19 H3          0.8780   -4.4020   -3.2750 H       1     ****    0.1350 
     20 H4         -0.7520   -3.0240   -2.0320 H       1     ****    0.1350 
     21 H5          0.0230   -1.2890   -0.4320 H       1     ****    0.1380 
     22 H6          3.3140   -4.0710   -2.9440 H       1     ****    0.1500 
     23 H7          6.8780   -2.4220   -0.4480 H       1     ****    0.1540 
     24 H8          9.0320   -1.6130    0.3650 H       1     ****    0.1360 
     25 H9          7.1610    2.0010    1.7620 H       1     ****    0.1360 
     26 H10         5.0100    1.2210    0.9520 H       1     ****    0.1370 
@<TRIPOS>BOND
     1  2 1 ar
     2  3 2 ar
     3  4 3 ar
     4  5 4 ar
     5  6 1 ar
     6  6 5 ar
     7  7 5 1
     8  8 7 2
     9  9 4 1
    10  9 8 1
    11 10 8 1
    12 11 10 ar
    13 12 11 ar
    14 13 12 ar
    15 14 13 ar
    16 15 10 ar
    17 15 14 ar
    18 16 13 1
    19 17 16 1
    20 18 16 1
    21 19 1 1
    22 20 2 1
    23 21 3 1
    24 22 6 1
    25 23 11 1
    26 24 12 1
    27 25 14 1
    28 26 15 1
@<TRIPOS>SUBSTRUCTURE
1     ****    1
@<TRIPOS>MOLECULE
ZINC00006427
33 35 1 0 0 
SMALL
USER_CHARGES


@<TRIPOS>ATOM
      1 C1          2.1010   -5.4380    2.6160 C.3     1     ****    0.0720 
      2 N1          3.2990   -4.9150    1.9600 N.am    1     ****   -0.3840 
      3 C2          4.4840   -5.7280    1.9630 C.ar    1     ****    0.0840 
      4 C3          4.3570   -7.1300    2.0190 C.ar    1     ****   -0.1620 
      5 C4          5.4730   -7.9700    1.9790 C.ar    1     ****   -0.0910 
      6 C5          6.7450   -7.4210    1.8860 C.ar    1     ****   -0.0080 
      7 C6          6.9090   -6.0400    1.8590 C.ar    1     ****   -0.0780 
      8 C7          5.7880   -5.1920    1.9230 C.ar    1     ****   -0.2020 
      9 C8          6.0560   -3.7250    2.0160 C.2     1     ****    0.5390 
     10 N2          5.4230   -2.8310    1.3340 N.2     1     ****   -0.5780 
     11 C9          4.3710   -3.2800    0.4440 C.3     1     ****    0.0400 
     12 C10         3.2000   -3.6790    1.3100 C.2     1     ****    0.6880 
     13 O1          2.2090   -2.9470    1.3680 O.2     1     ****   -0.6060 
     14 C11         7.1080   -3.2430    2.9580 C.ar    1     ****   -0.1460 
     15 C12         7.9390   -2.1840    2.5740 C.ar    1     ****   -0.0860 
     16 C13         8.9170   -1.7140    3.4510 C.ar    1     ****   -0.1400 
     17 C14         9.0620   -2.2920    4.7120 C.ar    1     ****   -0.1130 
     18 C15         8.2260   -3.3380    5.1010 C.ar    1     ****   -0.1370 
     19 C16         7.2460   -3.8140    4.2290 C.ar    1     ****   -0.1050 
     20 CL1         8.1220   -8.4510    1.8200 Cl      1     ****   -0.0820 
     21 H1          2.3670   -5.9320    3.5550 H       1     ****    0.0510 
     22 H2          1.3980   -4.6320    2.8480 H       1     ****    0.0760 
     23 H3          1.6010   -6.1370    1.9390 H       1     ****    0.0330 
     24 H4          3.3810   -7.6070    2.0580 H       1     ****    0.1480 
     25 H5          5.3300   -9.0470    2.0070 H       1     ****    0.1530 
     26 H6          7.9130   -5.6240    1.7960 H       1     ****    0.1630 
     27 H7          4.0630   -2.4440   -0.1940 H       1     ****    0.1070 
     28 H8          4.6770   -4.0870   -0.2320 H       1     ****    0.0700 
     29 H9          7.8410   -1.7230    1.5940 H       1     ****    0.1490 
     30 H10         9.5670   -0.8960    3.1510 H       1     ****    0.1360 
     31 H11         9.8240   -1.9240    5.3930 H       1     ****    0.1340 
     32 H12         8.3350   -3.7810    6.0870 H       1     ****    0.1360 
     33 H13         6.5930   -4.6160    4.5620 H       1     ****    0.1400 
@<TRIPOS>BOND
     1  2 1 1
     2  3 2 1
     3  4 3 ar
     4  5 4 ar
     5  6 5 ar
     6  7 6 ar
     7  8 3 ar
     8  8 7 ar
     9  9 8 1
    10 10 9 2
    11 11 10 1
    12 12 2 1
    13 12 11 1
    14 13 12 2
    15 14 9 1
    16 15 14 ar
    17 16 15 ar
    18 17 16 ar
    19 18 17 ar
    20 19 14 ar
    21 19 18 ar
    22 20 6 1
    23 21 1 1
    24 22 1 1
    25 23 1 1
    26 24 4 1
    27 25 5 1
    28 26 7 1
    29 27 11 1
    30 28 11 1
    31 29 15 1
    32 30 16 1
    33 31 17 1
    34 32 18 1
    35 33 19 1
@<TRIPOS>SUBSTRUCTURE
1     ****    1
@<TRIPOS>MOLECULE
ZINC00006468
21 22 1 0 0 
SMALL
USER_CHARGES


@<TRIPOS>ATOM
      1 C1          7.2380   -1.9200    1.8420 C.3     1     ****   -0.1390 
      2 C2          6.3900   -3.0420    2.3680 C.2     1     ****    0.4970 
      3 N1          6.2830   -3.1180    3.7390 N.am    1     ****   -0.4970 
      4 C3          5.5420   -4.0890    4.3880 C.2     1     ****    0.7070 
      5 O1          5.4380   -4.1670    5.6060 O.2     1     ****   -0.6200 
      6 C4          4.8660   -5.0490    3.4900 C.ar    1     ****   -0.1520 
      7 C5          4.0830   -6.0830    4.0140 C.ar    1     ****   -0.0970 
      8 C6          3.4550   -6.9780    3.1480 C.ar    1     ****   -0.1170 
      9 C7          3.6070   -6.8410    1.7690 C.ar    1     ****   -0.1320 
     10 C8          4.3900   -5.8060    1.2620 C.ar    1     ****    0.1420 
     11 C9          5.0320   -4.8950    2.1070 C.ar    1     ****    0.1050 
     12 N2          5.8140   -3.8640    1.5500 N.2     1     ****   -0.6440 
     13 O2          4.5160   -5.7040   -0.0980 O.3     1     ****   -0.4960 
     14 H1          6.7630   -2.4380    4.3200 H       1     ****    0.3370 
     15 H2          5.0900   -4.9370   -0.2760 H       1     ****    0.4440 
     16 H3          7.6570   -1.3120    2.6470 H       1     ****    0.0520 
     17 H4          8.0550   -2.3380    1.2470 H       1     ****    0.0760 
     18 H5          6.6280   -1.2840    1.1930 H       1     ****    0.0760 
     19 H6          3.9550   -6.2020    5.0870 H       1     ****    0.1600 
     20 H7          2.8450   -7.7830    3.5490 H       1     ****    0.1430 
     21 H8          3.1160   -7.5400    1.0980 H       1     ****    0.1560 
@<TRIPOS>BOND
     1  2 1 1
     2  3 2 1
     3  4 3 1
     4  5 4 2
     5  6 4 1
     6  7 6 ar
     7  8 7 ar
     8  9 8 ar
     9 10 9 ar
    10 11 6 ar
    11 11 10 ar
    12 12 2 2
    13 12 11 1
    14 13 10 1
    15 14 3 1
    16 15 13 1
    17 16 1 1
    18 17 1 1
    19 18 1 1
    20 19 7 1
    21 20 8 1
    22 21 9 1
@<TRIPOS>SUBSTRUCTURE
1     ****    1
@<TRIPOS>MOLECULE
ZINC00006642
22 23 1 0 0 
SMALL
USER_CHARGES


@<TRIPOS>ATOM
      1 C1          5.9440   -5.1160    0.3490 C.3     1     ****    0.1130 
      2 O1          5.3320   -4.8190   -0.9050 O.3     1     ****   -0.3200 
      3 C2          3.9820   -5.1300   -0.8830 C.2     1     ****    0.0380 
      4 C3          3.4980   -6.2030   -1.5250 C.2     1     ****   -0.0670 
      5 C4          2.0510   -6.5340   -1.5440 C.2     1     ****    0.5780 
      6 O2          1.6150   -7.5150   -2.1340 O.2     1     ****   -0.4880 
      7 C5          1.1380   -5.6350   -0.8130 C.ar    1     ****   -0.1310 
      8 C6         -0.2310   -5.9270   -0.7700 C.ar    1     ****   -0.0830 
      9 C7         -1.1050   -5.0820   -0.0860 C.ar    1     ****   -0.1120 
     10 C8         -0.6170   -3.9450    0.5540 C.ar    1     ****   -0.1150 
     11 C9          0.7460   -3.6490    0.5130 C.ar    1     ****   -0.0810 
     12 C10         1.6260   -4.4970   -0.1720 C.ar    1     ****   -0.1370 
     13 C11         3.0640   -4.1700   -0.2110 C.2     1     ****    0.5640 
     14 O3          3.4820   -3.1320    0.2910 O.2     1     ****   -0.4980 
     15 CL1         4.5400   -7.2940   -2.3730 Cl      1     ****   -0.0340 
     16 H1          7.0180   -4.9270    0.2520 H       1     ****    0.0730 
     17 H2          5.5590   -4.4720    1.1460 H       1     ****    0.0530 
     18 H3          5.8070   -6.1700    0.6150 H       1     ****    0.0330 
     19 H4         -0.6330   -6.8090   -1.2630 H       1     ****    0.1640 
     20 H5         -2.1660   -5.3100   -0.0530 H       1     ****    0.1450 
     21 H6         -1.2990   -3.2870    1.0860 H       1     ****    0.1450 
     22 H7          1.1050   -2.7560    1.0190 H       1     ****    0.1620 
@<TRIPOS>BOND
     1  2 1 1
     2  3 2 1
     3  4 3 2
     4  5 4 1
     5  6 5 2
     6  7 5 1
     7  8 7 ar
     8  9 8 ar
     9 10 9 ar
    10 11 10 ar
    11 12 7 ar
    12 12 11 ar
    13 13 3 1
    14 13 12 1
    15 14 13 2
    16 15 4 1
    17 16 1 1
    18 17 1 1
    19 18 1 1
    20 19 8 1
    21 20 9 1
    22 21 10 1
    23 22 11 1
@<TRIPOS>SUBSTRUCTURE
1     ****    1
@<TRIPOS>MOLECULE
ZINC00006709
32 34 1 0 0 
SMALL
USER_CHARGES


@<TRIPOS>ATOM
      1 C1          4.3140    3.2400   -0.9990 C.ar    1     ****   -0.0990 
      2 C2          5.1810    2.8790    0.0360 C.ar    1     ****   -0.0630 
      3 C3          4.8550    1.7630    0.7780 C.ar    1     ****    0.0510 
      4 C4          3.7190    1.0220    0.5180 C.ar    1     ****   -0.0330 
      5 C5          2.8440    1.3500   -0.4970 C.ar    1     ****   -0.1170 
      6 C6          3.1580    2.4790   -1.2590 C.ar    1     ****    0.0300 
      7 CL1         2.1080    2.9510   -2.5420 Cl      1     ****   -0.0320 
      8 N1          3.7160    0.0000    1.4450 N.am    1     ****   -0.4050 
      9 C7          4.8470    0.1410    2.2330 C.2     1     ****    0.8170 
     10 O1          5.1790   -0.5830    3.1640 O.2     1     ****   -0.5560 
     11 O2          5.5960    1.2600    1.8370 O.3     1     ****   -0.2410 
     12 C8          2.7380   -1.0500    1.5500 C.3     1     ****    0.3370 
     13 C9          1.0460   -2.0930    3.0670 C.3     1     ****    0.0730 
     14 C10         0.2070   -1.8360    4.3090 C.3     1     ****    0.1000 
     15 O3         -0.6700   -0.7290    4.1010 O.3     1     ****   -0.3720 
     16 C11         0.0640    0.4720    3.8580 C.3     1     ****    0.1000 
     17 C12         0.9010    0.3450    2.5930 C.3     1     ****    0.0650 
     18 H1          4.5440    4.1160   -1.6020 H       1     ****    0.1810 
     19 H2          6.0740    3.4580    0.2440 H       1     ****    0.1880 
     20 H3          1.9530    0.7670   -0.6980 H       1     ****    0.1580 
     21 H4          3.2710   -1.9900    1.7250 H       1     ****    0.1270 
     22 H5          2.1170   -1.1380    0.6530 H       1     ****    0.1230 
     23 H6          0.4200   -2.3100    2.1950 H       1     ****    0.1110 
     24 H7          1.7610   -2.9040    3.2350 H       1     ****    0.1140 
     25 H8         -0.4120   -2.7130    4.5250 H       1     ****    0.1300 
     26 H9          0.8340   -1.6490    5.1890 H       1     ****    0.0700 
     27 H10        -0.6590    1.2850    3.7420 H       1     ****    0.1290 
     28 H11         0.6860    0.7050    4.7300 H       1     ****    0.0690 
     29 H12         1.5060    1.2420    2.4410 H       1     ****    0.1120 
     30 H13         0.2760    0.1500    1.7140 H       1     ****    0.1080 
     31 N2          1.8340   -0.8390    2.7430 N.4     1     ****   -0.7330 
     32 H14         2.4550   -0.6500    3.5420 H       1     ****    0.4560 
@<TRIPOS>BOND
     1  2 1 ar
     2  3 2 ar
     3  4 3 ar
     4  5 4 ar
     5  6 1 ar
     6  6 5 ar
     7  7 6 1
     8  8 4 1
     9  9 8 1
    10 10 9 2
    11 11 3 1
    12 11 9 1
    13 12 8 1
    14 14 13 1
    15 15 14 1
    16 16 15 1
    17 17 16 1
    18 18 1 1
    19 19 2 1
    20 20 5 1
    21 21 12 1
    22 22 12 1
    23 23 13 1
    24 24 13 1
    25 25 14 1
    26 26 14 1
    27 27 16 1
    28 28 16 1
    29 29 17 1
    30 30 17 1
    31 31 12 1
    32 31 13 1
    33 31 17 1
    34 32 31 1
@<TRIPOS>SUBSTRUCTURE
1     ****    1
@<TRIPOS>MOLECULE
ZINC00006963
26 28 1 0 0 
SMALL
USER_CHARGES


@<TRIPOS>ATOM
      1 C1          2.1730    4.0110   -3.5070 C.ar    1     ****   -0.1290 
      2 C2          1.1500    3.2350   -2.9630 C.ar    1     ****   -0.1340 
      3 C3          0.7680    2.0460   -3.5860 C.ar    1     ****   -0.1250 
      4 C4          1.4120    1.6270   -4.7570 C.ar    1     ****   -0.0330 
      5 C5          2.4370    2.4110   -5.3000 C.ar    1     ****   -0.1210 
      6 C6          2.8160    3.6000   -4.6740 C.ar    1     ****   -0.1320 
      7 C7          1.0140    0.3910   -5.4010 C.2     1     ****   -0.0570 
      8 C8          0.4420    0.3730   -6.6600 C.2     1     ****   -0.1100 
      9 N1          0.1480   -0.9260   -6.9760 N.pl3   1     ****   -0.2790 
     10 C9          0.5220   -1.7450   -5.9470 C.ar    1     ****    0.4690 
     11 C10         1.0810   -0.9640   -4.9390 C.ar    1     ****   -0.3670 
     12 C11         1.5510   -1.6420   -3.7950 C.ar    1     ****    0.7330 
     13 N2          1.4000   -2.9960   -3.7560 N.ar    1     ****   -0.7940 
     14 C12         0.8290   -3.6190   -4.8070 C.ar    1     ****    0.6820 
     15 N3          0.3640   -3.0780   -5.9450 N.ar    1     ****   -0.7410 
     16 N4          2.1610   -1.0060   -2.7320 N.pl3   1     ****   -0.9520 
     17 H1         -0.2840   -1.2380   -7.8340 H       1     ****    0.3130 
     18 H2          2.3340   -0.0120   -2.7400 H       1     ****    0.4350 
     19 H3          2.4820   -1.5630   -1.9520 H       1     ****    0.4320 
     20 H4          2.4700    4.9360   -3.0210 H       1     ****    0.1330 
     21 H5          0.6490    3.5580   -2.0550 H       1     ****    0.1350 
     22 H6         -0.0360    1.4560   -3.1500 H       1     ****    0.1460 
     23 H7          2.9510    2.1050   -6.2080 H       1     ****    0.1370 
     24 H8          3.6120    4.2050   -5.0970 H       1     ****    0.1330 
     25 H9          0.2070    1.1700   -7.3540 H       1     ****    0.1740 
     26 H10         0.7350   -4.6960   -4.7210 H       1     ****    0.0490 
@<TRIPOS>BOND
     1  2 1 ar
     2  3 2 ar
     3  4 3 ar
     4  5 4 ar
     5  6 1 ar
     6  6 5 ar
     7  7 4 1
     8  8 7 2
     9  9 8 1
    10 10 9 1
    11 11 7 1
    12 11 10 ar
    13 12 11 ar
    14 13 12 ar
    15 14 13 ar
    16 15 10 ar
    17 15 14 ar
    18 16 12 1
    19 17 9 1
    20 18 16 1
    21 19 16 1
    22 20 1 1
    23 21 2 1
    24 22 3 1
    25 23 5 1
    26 24 6 1
    27 25 8 1
    28 26 14 1
@<TRIPOS>SUBSTRUCTURE
1     ****    1
@<TRIPOS>MOLECULE
ZINC00007220
32 34 1 0 0 
SMALL
USER_CHARGES


@<TRIPOS>ATOM
      1 C1          4.3100   -7.2570   -0.4840 C.ar    1     ****   -0.1090 
      2 C2          5.5080   -6.6350   -0.1600 C.ar    1     ****   -0.1520 
      3 C3          5.5250   -5.2970    0.2540 C.ar    1     ****   -0.0480 
      4 C4          4.3160   -4.5650    0.3140 C.ar    1     ****   -0.1100 
      5 C5          3.0830   -5.2060    0.0100 C.ar    1     ****    0.1540 
      6 C6          3.1120   -6.5490   -0.4000 C.ar    1     ****   -0.1440 
      7 N1          1.8750   -4.4750    0.0810 N.pl3   1     ****   -0.6910 
      8 C7          0.6870   -4.6660   -0.5770 C.2     1     ****    0.7780 
      9 N2         -0.4320   -4.0670   -0.2950 N.2     1     ****   -0.6950 
     10 C8         -1.3630   -4.5250   -1.3300 C.3     1     ****    0.0880 
     11 C9         -0.6730   -5.6940   -1.9830 C.3     1     ****    0.0930 
     12 O1          0.6920   -5.5230   -1.6390 O.3     1     ****   -0.4560 
     13 C10         4.3350   -3.1120    0.7500 C.3     1     ****   -0.0360 
     14 C11         5.7150   -2.4600    0.7110 C.3     1     ****   -0.0740 
     15 C12         6.7490   -3.3680    1.3560 C.3     1     ****   -0.0770 
     16 C13         6.8620   -4.6670    0.5660 C.3     1     ****   -0.0370 
     17 H1          1.8820   -3.7240    0.7640 H       1     ****    0.4570 
     18 H2          4.3040   -8.2970   -0.7960 H       1     ****    0.1340 
     19 H3          6.4350   -7.2000   -0.2290 H       1     ****    0.1320 
     20 H4          2.1950   -7.0870   -0.6270 H       1     ****    0.1570 
     21 H5         -2.3290   -4.8120   -0.9050 H       1     ****    0.0660 
     22 H6         -1.5330   -3.7140   -2.0470 H       1     ****    0.0650 
     23 H7         -1.0190   -6.6540   -1.5860 H       1     ****    0.0620 
     24 H8         -0.7960   -5.6940   -3.0700 H       1     ****    0.0640 
     25 H9          3.6720   -2.5190    0.1090 H       1     ****    0.0470 
     26 H10         3.9450   -3.0620    1.7750 H       1     ****    0.0470 
     27 H11         6.0020   -2.2540   -0.3280 H       1     ****    0.0460 
     28 H12         5.6810   -1.4950    1.2310 H       1     ****    0.0430 
     29 H13         7.7240   -2.8700    1.3890 H       1     ****    0.0430 
     30 H14         6.4600   -3.5810    2.3930 H       1     ****    0.0470 
     31 H15         7.4810   -5.3700    1.1360 H       1     ****    0.0510 
     32 H16         7.3740   -4.4710   -0.3840 H       1     ****    0.0530 
@<TRIPOS>BOND
     1  2 1 ar
     2  3 2 ar
     3  4 3 ar
     4  5 4 ar
     5  6 1 ar
     6  6 5 ar
     7  7 5 1
     8  8 7 1
     9  9 8 2
    10 10 9 1
    11 11 10 1
    12 12 8 1
    13 12 11 1
    14 13 4 1
    15 14 13 1
    16 15 14 1
    17 16 3 1
    18 16 15 1
    19 17 7 1
    20 18 1 1
    21 19 2 1
    22 20 6 1
    23 21 10 1
    24 22 10 1
    25 23 11 1
    26 24 11 1
    27 25 13 1
    28 26 13 1
    29 27 14 1
    30 28 14 1
    31 29 15 1
    32 30 15 1
    33 31 16 1
    34 32 16 1
@<TRIPOS>SUBSTRUCTURE
1     ****    1
@<TRIPOS>MOLECULE
ZINC00007753
33 36 1 0 0 
SMALL
USER_CHARGES


@<TRIPOS>ATOM
      1 C1         -5.6790    3.8710   -1.8530 C.3     1     ****   -0.1580 
      2 C2         -4.6800    2.9070   -1.2900 C.ar    1     ****    0.4770 
      3 C3         -4.3660    1.7460   -1.9900 C.ar    1     ****   -0.3030 
      4 C4         -3.4350    0.8720   -1.4420 C.ar    1     ****   -0.0070 
      5 C5         -2.8530    1.1860   -0.2170 C.ar    1     ****   -0.3200 
      6 C6         -1.8560    0.2880    0.4080 C.2     1     ****    0.5900 
      7 O1         -1.5090   -0.7590   -0.1250 O.2     1     ****   -0.5720 
      8 C7         -1.2870    0.7030    1.7160 C.2     1     ****   -0.3110 
      9 C8         -1.6830    1.8620    2.2790 C.2     1     ****    0.2320 
     10 N1         -2.6190    2.6720    1.6660 N.pl3   1     ****   -0.7150 
     11 C9         -3.2120    2.3680    0.4340 C.ar    1     ****    0.6730 
     12 N2         -4.1180    3.2240   -0.0960 N.ar    1     ****   -0.7290 
     13 C10        -1.1470    2.2810    3.5510 C.2     1     ****   -0.0830 
     14 C11        -1.9630    2.5150    4.6370 C.2     1     ****   -0.1420 
     15 S1         -1.0840    2.9840    6.0190 S.2     1     ****    0.0720 
     16 C12         0.4200    2.9020    5.1830 C.ar    1     ****   -0.0890 
     17 C13         0.2480    2.5130    3.8490 C.ar    1     ****   -0.0570 
     18 C14         1.4110    2.4230    3.0380 C.ar    1     ****   -0.0900 
     19 C15         2.6750    2.7010    3.5630 C.ar    1     ****   -0.1250 
     20 C16         2.8140    3.0750    4.8910 C.ar    1     ****   -0.1180 
     21 C17         1.6940    3.1830    5.7160 C.ar    1     ****   -0.0930 
     22 H1         -2.8910    3.5380    2.1130 H       1     ****    0.4650 
     23 H2         -6.6500    3.3810   -1.9770 H       1     ****    0.0550 
     24 H3         -5.8130    4.7280   -1.1850 H       1     ****    0.0650 
     25 H4         -5.3380    4.2460   -2.8230 H       1     ****    0.0560 
     26 H5         -4.8320    1.5210   -2.9430 H       1     ****    0.1480 
     27 H6         -3.1770   -0.0400   -1.9730 H       1     ****    0.1650 
     28 H7         -0.5640    0.0370    2.1740 H       1     ****    0.1690 
     29 H8         -3.0400    2.4230    4.6930 H       1     ****    0.1780 
     30 H9          1.3290    2.1370    1.9910 H       1     ****    0.1500 
     31 H10         3.5520    2.6250    2.9260 H       1     ****    0.1380 
     32 H11         3.8000    3.2910    5.2930 H       1     ****    0.1370 
     33 H12         1.8100    3.4810    6.7550 H       1     ****    0.1390 
@<TRIPOS>BOND
     1  2 1 1
     2  3 2 ar
     3  4 3 ar
     4  5 4 ar
     5  6 5 1
     6  7 6 2
     7  8 6 1
     8  9 8 2
     9 10 9 1
    10 11 5 ar
    11 11 10 1
    12 12 2 ar
    13 12 11 ar
    14 13 9 1
    15 14 13 2
    16 15 14 1
    17 16 15 1
    18 17 13 1
    19 17 16 ar
    20 18 17 ar
    21 19 18 ar
    22 20 19 ar
    23 21 16 ar
    24 21 20 ar
    25 22 10 1
    26 23 1 1
    27 24 1 1
    28 25 1 1
    29 26 3 1
    30 27 4 1
    31 28 8 1
    32 29 14 1
    33 30 18 1
    34 31 19 1
    35 32 20 1
    36 33 21 1
@<TRIPOS>SUBSTRUCTURE
1     ****    1
@<TRIPOS>MOLECULE
ZINC00007886
17 17 1 0 0 
SMALL
USER_CHARGES


@<TRIPOS>ATOM
      1 C1          4.0160   -7.6730   -1.7910 C.3     1     ****   -0.1770 
      2 C2          2.6590   -7.0240   -1.6240 C.2     1     ****    0.6720 
      3 O1          1.7170   -7.7390   -1.2670 O.2     1     ****   -0.4840 
      4 N1          2.5550   -5.6450   -1.8880 N.am    1     ****   -0.4170 
      5 C3          3.6520   -4.8880   -2.2880 C.2     1     ****   -0.0240 
      6 C4          3.5880   -3.5830   -2.5450 C.2     1     ****   -0.0030 
      7 C5          2.3270   -2.8490   -2.4170 C.2     1     ****    0.7020 
      8 O2          2.2460   -1.6490   -2.6490 O.2     1     ****   -0.5710 
      9 N2          1.2710   -3.6440   -2.0180 N.am    1     ****   -0.5880 
     10 C6          1.2960   -5.0140   -1.7390 C.2     1     ****    0.8040 
     11 O3          0.2550   -5.5760   -1.3910 O.2     1     ****   -0.5670 
     12 F1          4.6640   -2.8730   -2.9310 F       1     ****   -0.1290 
     13 H1          0.3720   -3.1840   -1.9140 H       1     ****    0.3620 
     14 H2          3.9400   -8.7390   -1.5520 H       1     ****    0.0930 
     15 H3          4.3580   -7.5850   -2.8260 H       1     ****    0.0730 
     16 H4          4.7400   -7.2270   -1.1030 H       1     ****    0.0730 
     17 H5          4.6100   -5.3810   -2.3980 H       1     ****    0.1790 
@<TRIPOS>BOND
     1  2 1 1
     2  3 2 2
     3  4 2 1
     4  5 4 1
     5  6 5 2
     6  7 6 1
     7  8 7 2
     8  9 7 1
     9 10 4 1
    10 10 9 1
    11 11 10 2
    12 12 6 1
    13 13 9 1
    14 14 1 1
    15 15 1 1
    16 16 1 1
    17 17 5 1
@<TRIPOS>SUBSTRUCTURE
1     ****    1
@<TRIPOS>MOLECULE
ZINC00008629
40 43 1 0 0 
SMALL
USER_CHARGES


@<TRIPOS>ATOM
      1 C1          0.2860    5.2330    5.2570 C.ar    1     ****   -0.1470 
      2 C2         -0.3260    5.3720    6.4980 C.ar    1     ****   -0.0620 
      3 C3         -1.6600    5.7570    6.5680 C.ar    1     ****   -0.1490 
      4 C4         -2.3870    5.9850    5.3950 C.ar    1     ****    0.1320 
      5 C5         -1.8000    5.8580    4.1310 C.ar    1     ****   -0.2310 
      6 C6         -0.4410    5.4800    4.0880 C.ar    1     ****   -0.0360 
      7 C7         -2.5370    6.1300    2.9800 C.ar    1     ****    0.6270 
      8 C8         -3.8980    6.3570    3.1240 C.ar    1     ****   -0.5490 
      9 C9         -4.5990    6.5770    1.9480 C.ar    1     ****    0.5070 
     10 N1         -4.0360    6.6290    0.7260 N.ar    1     ****   -0.7410 
     11 C10        -2.7120    6.4160    0.6720 C.ar    1     ****    0.9400 
     12 N2         -1.9580    6.1590    1.7600 N.ar    1     ****   -0.7580 
     13 N3         -2.0900    6.4560   -0.5600 N.pl3   1     ****   -0.9150 
     14 C11        -4.5820    6.1880    4.4730 C.3     1     ****    0.4700 
     15 O1         -3.6690    6.4290    5.5600 O.3     1     ****   -0.3280 
     16 C12        -5.5620    8.5250    4.7240 C.3     1     ****    0.1100 
     17 C13        -6.8790    9.2870    4.7730 C.3     1     ****   -0.1050 
     18 C14        -7.7450    8.8400    5.9450 C.3     1     ****   -0.0970 
     19 C15        -7.9570    7.3310    5.9320 C.3     1     ****   -0.1060 
     20 C16        -6.6350    6.5770    5.8740 C.3     1     ****    0.1120 
     21 H1         -2.6360    6.6450   -1.3880 H       1     ****    0.4690 
     22 H2         -1.0960    6.2970   -0.6220 H       1     ****    0.4690 
     23 H3          1.3300    4.9390    5.1940 H       1     ****    0.1620 
     24 H4          0.2390    5.1900    7.4080 H       1     ****    0.1600 
     25 H5         -2.1320    5.8840    7.5390 H       1     ****    0.1610 
     26 H6          0.0740    5.3680    3.1350 H       1     ****    0.1710 
     27 H7         -5.6750    6.7100    1.9310 H       1     ****    0.0180 
     28 H8         -4.9150    5.1340    4.4940 H       1     ****    0.1080 
     29 H9         -4.9520    8.7150    5.6140 H       1     ****    0.1080 
     30 H10        -4.9980    8.8010    3.8290 H       1     ****    0.1010 
     31 H11        -6.6780   10.3610    4.8530 H       1     ****    0.0970 
     32 H12        -7.4270    9.1350    3.8350 H       1     ****    0.0650 
     33 H13        -7.2650    9.1340    6.8870 H       1     ****    0.0670 
     34 H14        -8.7140    9.3510    5.9070 H       1     ****    0.0870 
     35 H15        -8.5120    7.0300    6.8280 H       1     ****    0.0980 
     36 H16        -8.5750    7.0570    5.0680 H       1     ****    0.0640 
     37 H17        -6.8120    5.5030    5.7630 H       1     ****    0.0930 
     38 H18        -6.0230    6.7600    6.7640 H       1     ****    0.1140 
     39 N4         -5.8470    7.0380    4.6640 N.4     1     ****   -0.7180 
     40 H19        -6.4560    6.8680    3.8540 H       1     ****    0.4340 
@<TRIPOS>BOND
     1  2 1 ar
     2  3 2 ar
     3  4 3 ar
     4  5 4 ar
     5  6 1 ar
     6  6 5 ar
     7  7 5 1
     8  8 7 ar
     9  9 8 ar
    10 10 9 ar
    11 11 10 ar
    12 12 7 ar
    13 12 11 ar
    14 13 11 1
    15 14 8 1
    16 15 4 1
    17 15 14 1
    18 17 16 1
    19 18 17 1
    20 19 18 1
    21 20 19 1
    22 21 13 1
    23 22 13 1
    24 23 1 1
    25 24 2 1
    26 25 3 1
    27 26 6 1
    28 27 9 1
    29 28 14 1
    30 29 16 1
    31 30 16 1
    32 31 17 1
    33 32 17 1
    34 33 18 1
    35 34 18 1
    36 35 19 1
    37 36 19 1
    38 37 20 1
    39 38 20 1
    40 39 14 1
    41 39 16 1
    42 39 20 1
    43 40 39 1
@<TRIPOS>SUBSTRUCTURE
1     ****    1
@<TRIPOS>MOLECULE
ZINC00008657
15 15 1 0 0 
SMALL
USER_CHARGES


@<TRIPOS>ATOM
      1 C1          5.9000   -8.4110   -0.2990 C.2     1     ****   -0.0740 
      2 C2          6.7220   -8.9070   -1.2290 C.2     1     ****   -0.0070 
      3 N1          6.2240   -9.6960   -2.2240 N.am    1     ****   -0.4340 
      4 C3          4.8820   -9.9970   -2.2970 C.2     1     ****    0.5750 
      5 C4          4.0410   -9.3890   -1.1910 C.2     1     ****    0.2930 
      6 N2          4.5490   -8.6380   -0.2570 N.2     1     ****   -0.4650 
      7 C5          2.5600   -9.6240   -1.1060 C.2     1     ****    0.6130 
      8 O1          2.1520  -10.7240   -0.7760 O.2     1     ****   -0.5750 
      9 N3          1.8140   -8.5220   -1.4300 N.am    1     ****   -0.6600 
     10 O2          4.3410  -10.6810   -3.1510 O.2     1     ****   -0.5900 
     11 H1          0.8010   -8.5610   -1.4090 H       1     ****    0.3210 
     12 H2          2.2370   -7.6350   -1.6830 H       1     ****    0.3150 
     13 H3          6.8570  -10.0650   -2.9260 H       1     ****    0.3410 
     14 H4          6.2950   -7.7820    0.4930 H       1     ****    0.1830 
     15 H5          7.7880   -8.7150   -1.2420 H       1     ****    0.1640 
@<TRIPOS>BOND
     1  2 1 2
     2  3 2 1
     3  4 3 1
     4  5 4 1
     5  6 1 1
     6  6 5 2
     7  7 5 1
     8  8 7 2
     9  9 7 1
    10 10 4 2
    11 11 9 1
    12 12 9 1
    13 13 3 1
    14 14 1 1
    15 15 2 1
@<TRIPOS>SUBSTRUCTURE
1     ****    1
@<TRIPOS>MOLECULE
ZINC00009065
29 31 1 0 0 
SMALL
USER_CHARGES


@<TRIPOS>ATOM
      1 C1          5.7460   -7.7670    0.4570 C.ar    1     ****   -0.1030 
      2 C2          5.1150   -8.9770    0.2160 C.ar    1     ****   -0.2400 
      3 C3          3.7340   -9.0010    0.2630 C.ar    1     ****    0.3960 
      4 N1          2.9670   -7.9180    0.5300 N.ar    1     ****   -0.6680 
      5 C4          3.5920   -6.7340    0.7660 C.ar    1     ****    0.3530 
      6 C5          4.9850   -6.6320    0.7350 C.ar    1     ****   -0.2060 
      7 C6          2.7160   -5.5800    1.0530 C.ar    1     ****    0.3530 
      8 C7          1.3270   -5.6790    1.0850 C.ar    1     ****   -0.1950 
      9 C8          0.5760   -4.5430    1.3630 C.ar    1     ****   -0.1160 
     10 C9          1.2160   -3.3320    1.6040 C.ar    1     ****   -0.1950 
     11 C10         2.6070   -3.2840    1.5610 C.ar    1     ****    0.3530 
     12 N2          3.3420   -4.3950    1.2890 N.ar    1     ****   -0.6730 
     13 C11         3.3700   -2.0420    1.8050 C.ar    1     ****    0.3530 
     14 C12         4.7660   -1.9950    1.7620 C.ar    1     ****   -0.2060 
     15 C13         5.4160   -0.7860    2.0020 C.ar    1     ****   -0.1030 
     16 C14         4.6730    0.3520    2.2800 C.ar    1     ****   -0.2400 
     17 C15         3.2970    0.2280    2.3060 C.ar    1     ****    0.3960 
     18 N3          2.6370   -0.9300    2.0770 N.ar    1     ****   -0.6680 
     19 H1          6.8300   -7.7010    0.4300 H       1     ****    0.1390 
     20 H2          5.6840   -9.8730   -0.0030 H       1     ****    0.1440 
     21 H3          3.1860   -9.9200    0.0830 H       1     ****    0.0220 
     22 H4          5.4930   -5.6910    0.9220 H       1     ****    0.1620 
     23 H5          0.8150   -6.6180    0.8980 H       1     ****    0.1670 
     24 H6         -0.5080   -4.6000    1.3920 H       1     ****    0.1420 
     25 H7          0.6180   -2.4520    1.8200 H       1     ****    0.1670 
     26 H8          5.3600   -2.8780    1.5450 H       1     ****    0.1620 
     27 H9          6.5000   -0.7360    1.9720 H       1     ****    0.1390 
     28 H10         5.1550    1.3040    2.4710 H       1     ****    0.1440 
     29 H11         2.6650    1.0850    2.5180 H       1     ****    0.0220 
@<TRIPOS>BOND
     1  2 1 ar
     2  3 2 ar
     3  4 3 ar
     4  5 4 ar
     5  6 1 ar
     6  6 5 ar
     7  7 5 1
     8  8 7 ar
     9  9 8 ar
    10 10 9 ar
    11 11 10 ar
    12 12 7 ar
    13 12 11 ar
    14 13 11 1
    15 14 13 ar
    16 15 14 ar
    17 16 15 ar
    18 17 16 ar
    19 18 13 ar
    20 18 17 ar
    21 19 1 1
    22 20 2 1
    23 21 3 1
    24 22 6 1
    25 23 8 1
    26 24 9 1
    27 25 10 1
    28 26 14 1
    29 27 15 1
    30 28 16 1
    31 29 17 1
@<TRIPOS>SUBSTRUCTURE
1     ****    1
@<TRIPOS>MOLECULE
ZINC00011050
17 17 1 0 0 
SMALL
USER_CHARGES


@<TRIPOS>ATOM
      1 C1          4.9380   -9.3070   -1.4550 C.ar    1     ****   -0.0690 
      2 C2          5.7820   -9.7810   -0.4590 C.ar    1     ****   -0.2010 
      3 C3          5.6950   -9.1980    0.7930 C.ar    1     ****    0.4280 
      4 N1          4.8410   -8.1980    1.1040 N.ar    1     ****   -0.7140 
      5 C4          4.0250   -7.7490    0.1170 C.ar    1     ****    0.3220 
      6 C5          4.0450   -8.2780   -1.1710 C.ar    1     ****   -0.2040 
      7 C6          3.0680   -6.6370    0.4460 C.3     1     ****    0.0690 
      8 H1          2.4800   -5.4050    2.0400 H       1     ****    0.4590 
      9 H2          2.9480   -6.9310    2.5100 H       1     ****    0.4720 
     10 H3          4.9750   -9.7380   -2.4520 H       1     ****    0.1710 
     11 H4          6.4860  -10.5810   -0.6570 H       1     ****    0.1760 
     12 H5          6.3320   -9.5320    1.6060 H       1     ****    0.0500 
     13 H6          3.3830   -7.9030   -1.9450 H       1     ****    0.1600 
     14 H7          3.2710   -5.7630   -0.1810 H       1     ****    0.1170 
     15 H8          2.0350   -6.9660    0.2940 H       1     ****    0.1160 
     16 N2          3.1480   -6.1640    1.8540 N.4     1     ****   -0.8270 
     17 H9          4.0920   -5.8180    2.0720 H       1     ****    0.4730 
@<TRIPOS>BOND
     1  2 1 ar
     2  3 2 ar
     3  4 3 ar
     4  5 4 ar
     5  6 1 ar
     6  6 5 ar
     7  7 5 1
     8 10 1 1
     9 11 2 1
    10 12 3 1
    11 13 6 1
    12 14 7 1
    13 15 7 1
    14 16 7 1
    15 16 8 1
    16 16 9 1
    17 17 16 1
@<TRIPOS>SUBSTRUCTURE
1     ****    1
@<TRIPOS>MOLECULE
ZINC00012513
31 33 1 0 0 
SMALL
USER_CHARGES


@<TRIPOS>ATOM
      1 C1          5.7720   -6.4980    0.6110 C.ar    1     ****    0.6860 
      2 N1          5.8390   -7.4540   -0.3440 N.ar    1     ****   -0.8000 
      3 C2          4.8850   -7.4740   -1.3160 C.ar    1     ****    0.7650 
      4 C3          3.8850   -6.4900   -1.2590 C.ar    1     ****   -0.2360 
      5 C4          3.9420   -5.5720   -0.2210 C.ar    1     ****    0.4600 
      6 N2          4.8610   -5.5160    0.7560 N.ar    1     ****   -0.7380 
      7 N3          2.8640   -4.7490   -0.4130 N.pl3   1     ****   -0.2580 
      8 C5          2.2130   -5.1920   -1.5350 C.2     1     ****    0.4000 
      9 N4          2.8020   -6.2400   -2.0690 N.2     1     ****   -0.5470 
     10 C6          2.4820   -3.6150    0.4200 C.3     1     ****    0.0560 
     11 C7          1.1090   -3.8240    1.0770 C.3     1     ****   -0.0910 
     12 C8          0.7240   -2.6350    1.9540 C.3     1     ****   -0.0770 
     13 C9          0.7810   -1.3220    1.1790 C.3     1     ****   -0.0820 
     14 C10         2.1440   -1.1090    0.5280 C.3     1     ****   -0.0770 
     15 C11         2.5370   -2.2910   -0.3570 C.3     1     ****   -0.0910 
     16 N5          4.9180   -8.4330   -2.3090 N.pl3   1     ****   -0.9640 
     17 H1          5.6580   -9.1210   -2.3090 H       1     ****    0.4450 
     18 H2          4.2100   -8.4480   -3.0300 H       1     ****    0.4540 
     19 H3          6.5560   -6.5290    1.3600 H       1     ****    0.0500 
     20 H4          1.3190   -4.7160   -1.9160 H       1     ****    0.0710 
     21 H5          3.2280   -3.5580    1.2240 H       1     ****    0.0940 
     22 H6          0.3370   -3.9670    0.3100 H       1     ****    0.0440 
     23 H7          1.1180   -4.7380    1.6840 H       1     ****    0.0580 
     24 H8         -0.2860   -2.7840    2.3540 H       1     ****    0.0470 
     25 H9          1.4030   -2.5810    2.8140 H       1     ****    0.0470 
     26 H10         0.0030   -1.3210    0.4060 H       1     ****    0.0410 
     27 H11         0.5610   -0.4860    1.8540 H       1     ****    0.0460 
     28 H12         2.1280   -0.1910   -0.0700 H       1     ****    0.0470 
     29 H13         2.9030   -0.9690    1.3070 H       1     ****    0.0470 
     30 H14         3.5460   -2.1290   -0.7550 H       1     ****    0.0580 
     31 H15         1.8620   -2.3270   -1.2220 H       1     ****    0.0440 
@<TRIPOS>BOND
     1  2 1 ar
     2  3 2 ar
     3  4 3 ar
     4  5 4 ar
     5  6 1 ar
     6  6 5 ar
     7  7 5 1
     8  8 7 1
     9  9 4 1
    10  9 8 2
    11 10 7 1
    12 11 10 1
    13 12 11 1
    14 13 12 1
    15 14 13 1
    16 15 10 1
    17 15 14 1
    18 16 3 1
    19 17 16 1
    20 18 16 1
    21 19 1 1
    22 20 8 1
    23 21 10 1
    24 22 11 1
    25 23 11 1
    26 24 12 1
    27 25 12 1
    28 26 13 1
    29 27 13 1
    30 28 14 1
    31 29 14 1
    32 30 15 1
    33 31 15 1
@<TRIPOS>SUBSTRUCTURE
1     ****    1
@<TRIPOS>MOLECULE
ZINC00013352
16 16 1 0 0 
SMALL
USER_CHARGES


@<TRIPOS>ATOM
      1 C1         -3.1030   -7.6950   -1.0600 C.3     1     ****   -0.0650 
      2 C2         -1.9560   -7.0150   -1.7470 C.2     1     ****    0.0530 
      3 C3         -1.1470   -7.6200   -2.6320 C.2     1     ****   -0.0750 
      4 C4         -0.0380   -6.8460   -3.2540 C.2     1     ****    0.6960 
      5 O1          0.7170   -7.3730   -4.0660 O.2     1     ****   -0.6220 
      6 N1          0.0640   -5.5290   -2.8490 N.am    1     ****   -0.5720 
      7 C5         -0.7670   -4.8960   -1.9340 C.2     1     ****    0.8050 
      8 O2         -0.6220   -3.7160   -1.6160 O.2     1     ****   -0.6370 
      9 N2         -1.7670   -5.6930   -1.4110 N.am    1     ****   -0.4650 
     10 O3         -1.2990   -8.9410   -2.9980 O.3     1     ****   -0.4860 
     11 H1          0.8100   -4.9750   -3.2540 H       1     ****    0.3600 
     12 H2         -2.4010   -5.2730   -0.7370 H       1     ****    0.3570 
     13 H3         -0.5980   -9.1380   -3.6450 H       1     ****    0.4470 
     14 H4         -3.2130   -8.7420   -1.3580 H       1     ****    0.0880 
     15 H5         -2.9620   -7.6750    0.0260 H       1     ****    0.0590 
     16 H6         -4.0430   -7.1850   -1.2950 H       1     ****    0.0580 
@<TRIPOS>BOND
     1  2 1 1
     2  3 2 2
     3  4 3 1
     4  5 4 2
     5  6 4 1
     6  7 6 1
     7  8 7 2
     8  9 2 1
     9  9 7 1
    10 10 3 1
    11 11 6 1
    12 12 9 1
    13 13 10 1
    14 14 1 1
    15 15 1 1
    16 16 1 1
@<TRIPOS>SUBSTRUCTURE
1     ****    1
@<TRIPOS>MOLECULE
ZINC00013563
24 25 1 0 0 
SMALL
USER_CHARGES


@<TRIPOS>ATOM
      1 C1          1.4720   -3.9540   -0.8730 C.ar    1     ****   -0.0910 
      2 C2          1.2050   -4.1280    0.4840 C.ar    1     ****   -0.1510 
      3 C3          2.0670   -4.8910    1.2750 C.ar    1     ****   -0.0580 
      4 C4          3.2040   -5.4790    0.7100 C.ar    1     ****   -0.1280 
      5 C5          3.4630   -5.3090   -0.6550 C.ar    1     ****   -0.0460 
      6 C6          2.5990   -4.5450   -1.4420 C.ar    1     ****   -0.1480 
      7 S1          4.2950   -6.4700    1.7590 S.o     1     ****    0.3750 
      8 O1          5.1260   -7.2940    0.8190 O.3     1     ****   -0.5150 
      9 C7          5.3290   -5.0580    2.2180 C.ar    1     ****   -0.1280 
     10 C8          4.9950   -4.3100    3.3540 C.ar    1     ****   -0.0590 
     11 C9          5.7810   -3.2220    3.7330 C.ar    1     ****   -0.1510 
     12 C10         6.9060   -2.8780    2.9850 C.ar    1     ****   -0.0900 
     13 C11         7.2480   -3.6240    1.8580 C.ar    1     ****   -0.1480 
     14 C12         6.4640   -4.7140    1.4760 C.ar    1     ****   -0.0450 
     15 H1          0.8010   -3.3610   -1.4870 H       1     ****    0.1330 
     16 H2          0.3250   -3.6700    0.9270 H       1     ****    0.1340 
     17 H3          1.8390   -5.0180    2.3300 H       1     ****    0.1250 
     18 H4          4.3360   -5.7600   -1.1200 H       1     ****    0.1630 
     19 H5          2.8060   -4.4120   -2.5000 H       1     ****    0.1370 
     20 H6          4.1240   -4.5660    3.9520 H       1     ****    0.1250 
     21 H7          5.5170   -2.6420    4.6130 H       1     ****    0.1340 
     22 H8          7.5170   -2.0300    3.2810 H       1     ****    0.1330 
     23 H9          8.1260   -3.3580    1.2770 H       1     ****    0.1370 
     24 H10         6.7500   -5.2820    0.5940 H       1     ****    0.1620 
@<TRIPOS>BOND
     1  2 1 ar
     2  3 2 ar
     3  4 3 ar
     4  5 4 ar
     5  6 1 ar
     6  6 5 ar
     7  7 4 1
     8  8 7 1
     9  9 7 1
    10 10 9 ar
    11 11 10 ar
    12 12 11 ar
    13 13 12 ar
    14 14 9 ar
    15 14 13 ar
    16 15 1 1
    17 16 2 1
    18 17 3 1
    19 18 5 1
    20 19 6 1
    21 20 10 1
    22 21 11 1
    23 22 12 1
    24 23 13 1
    25 24 14 1
@<TRIPOS>SUBSTRUCTURE
1     ****    1
@<TRIPOS>MOLECULE
ZINC00013564
17 17 1 0 0 
SMALL
USER_CHARGES


@<TRIPOS>ATOM
      1 C1          4.0920  -10.1170   -3.1970 C.3     1     ****   -0.1270 
      2 S1          2.9300  -10.1310   -1.8070 S.o     1     ****    0.3250 
      3 O1          2.8800  -11.5300   -1.2700 O.3     1     ****   -0.5120 
      4 C2          3.9410   -9.1740   -0.6580 C.ar    1     ****   -0.1340 
      5 C3          4.0110   -7.7840   -0.8040 C.ar    1     ****   -0.0650 
      6 C4          4.7810   -7.0240    0.0770 C.ar    1     ****   -0.1500 
      7 C5          5.4810   -7.6460    1.1090 C.ar    1     ****   -0.0910 
      8 C6          5.4100   -9.0300    1.2620 C.ar    1     ****   -0.1470 
      9 C7          4.6410   -9.7940    0.3820 C.ar    1     ****   -0.0470 
     10 H1          3.6820  -10.7390   -3.9960 H       1     ****    0.0850 
     11 H2          4.2140   -9.0960   -3.5650 H       1     ****    0.0750 
     12 H3          5.0570  -10.5230   -2.8830 H       1     ****    0.0910 
     13 H4          3.4690   -7.2800   -1.6010 H       1     ****    0.1270 
     14 H5          4.8330   -5.9450   -0.0400 H       1     ****    0.1350 
     15 H6          6.0790   -7.0530    1.7950 H       1     ****    0.1340 
     16 H7          5.9540   -9.5150    2.0680 H       1     ****    0.1380 
     17 H8          4.6010  -10.8710    0.5210 H       1     ****    0.1640 
@<TRIPOS>BOND
     1  2 1 1
     2  3 2 1
     3  4 2 1
     4  5 4 ar
     5  6 5 ar
     6  7 6 ar
     7  8 7 ar
     8  9 4 ar
     9  9 8 ar
    10 10 1 1
    11 11 1 1
    12 12 1 1
    13 13 5 1
    14 14 6 1
    15 15 7 1
    16 16 8 1
    17 17 9 1
@<TRIPOS>SUBSTRUCTURE
1     ****    1
@<TRIPOS>MOLECULE
ZINC00014709
24 24 1 0 0 
SMALL
USER_CHARGES


@<TRIPOS>ATOM
      1 C1          5.5440   -9.8790   -0.1010 C.3     1     ****   -0.0940 
      2 C2          6.3120   -8.5670   -0.2130 C.3     1     ****   -0.0940 
      3 C3          5.3860   -7.4090   -0.5730 C.3     1     ****   -0.1040 
      4 C4          4.2210   -7.2800    0.4210 C.3     1     ****    0.1020 
      5 C5          3.4430   -8.6080    0.5290 C.3     1     ****    0.1020 
      6 C6          4.3870   -9.7660    0.8870 C.3     1     ****   -0.1040 
      7 H1          1.9490   -9.4150    1.7370 H       1     ****    0.4990 
      8 H2          2.8100   -8.2280    2.4990 H       1     ****    0.4720 
      9 H3          2.5900   -5.9650    0.6220 H       1     ****    0.4550 
     10 H4          3.8500   -5.3330   -0.2250 H       1     ****    0.4990 
     11 H5          6.2240  -10.6780    0.2170 H       1     ****    0.1250 
     12 H6          5.1570  -10.1630   -1.0880 H       1     ****    0.0800 
     13 H7          6.8130   -8.3530    0.7390 H       1     ****    0.0810 
     14 H8          7.0960   -8.6620   -0.9720 H       1     ****    0.1250 
     15 H9          5.9650   -6.4780   -0.5940 H       1     ****    0.1030 
     16 H10         4.9980   -7.5630   -1.5890 H       1     ****    0.0870 
     17 H11         4.6430   -7.0010    1.4020 H       1     ****    0.1380 
     18 H12         2.9610   -8.8490   -0.4340 H       1     ****    0.1380 
     19 H13         3.8310  -10.7110    0.9010 H       1     ****    0.1030 
     20 H14         4.7920   -9.6230    1.8980 H       1     ****    0.0870 
     21 N1          2.4130   -8.5070    1.5900 N.4     1     ****   -0.8610 
     22 H15         1.6650   -7.8410    1.3560 H       1     ****    0.4540 
     23 N2          3.3230   -6.2030   -0.0590 N.4     1     ****   -0.8610 
     24 H16         2.8610   -6.4420   -0.9480 H       1     ****    0.4710 
@<TRIPOS>BOND
     1  2 1 1
     2  3 2 1
     3  4 3 1
     4  5 4 1
     5  6 1 1
     6  6 5 1
     7 11 1 1
     8 12 1 1
     9 13 2 1
    10 14 2 1
    11 15 3 1
    12 16 3 1
    13 17 4 1
    14 18 5 1
    15 19 6 1
    16 20 6 1
    17 21 5 1
    18 21 7 1
    19 21 8 1
    20 22 21 1
    21 23 4 1
    22 23 9 1
    23 23 10 1
    24 24 23 1
@<TRIPOS>SUBSTRUCTURE
1     ****    1
@<TRIPOS>MOLECULE
ZINC00015173
24 25 1 0 0 
SMALL
USER_CHARGES


@<TRIPOS>ATOM
      1 C1          6.0070   -3.2710   -0.5850 C.3     1     ****    0.0690 
      2 N1          4.9000   -3.9060    0.1250 N.am    1     ****   -0.3580 
      3 C2          4.9220   -3.9750    1.5460 C.ar    1     ****    0.0310 
      4 C3          5.9950   -3.4390    2.2850 C.ar    1     ****   -0.1420 
      5 C4          6.0180   -3.5050    3.6780 C.ar    1     ****   -0.1240 
      6 C5          4.9690   -4.1060    4.3560 C.ar    1     ****   -0.1240 
      7 C6          3.8990   -4.6420    3.6390 C.ar    1     ****   -0.1420 
      8 C7          3.8600   -4.5840    2.2320 C.ar    1     ****    0.0310 
      9 N2          2.7670   -5.1310    1.5040 N.am    1     ****   -0.3580 
     10 C8          2.7120   -5.0830    0.1170 C.2     1     ****    0.6350 
     11 O1          1.8040   -5.5320   -0.5780 O.2     1     ****   -0.5700 
     12 C9          3.8500   -4.4290   -0.6190 C.2     1     ****    0.6350 
     13 O2          3.7630   -4.4070   -1.8440 O.2     1     ****   -0.5700 
     14 C10         1.6650   -5.7640    2.2220 C.3     1     ****    0.0690 
     15 H1          6.0840   -2.2230   -0.2780 H       1     ****    0.0450 
     16 H2          6.9360   -3.8080   -0.3670 H       1     ****    0.0440 
     17 H3          5.8540   -3.2930   -1.6680 H       1     ****    0.0880 
     18 H4          6.8390   -2.9580    1.8000 H       1     ****    0.1430 
     19 H5          6.8550   -3.0850    4.2290 H       1     ****    0.1400 
     20 H6          4.9800   -4.1610    5.4400 H       1     ****    0.1400 
     21 H7          3.1020   -5.1030    4.2150 H       1     ****    0.1430 
     22 H8          2.0430   -6.6160    2.7950 H       1     ****    0.0440 
     23 H9          1.1910   -5.0320    2.8840 H       1     ****    0.0440 
     24 H10         0.8990   -6.1370    1.5340 H       1     ****    0.0880 
@<TRIPOS>BOND
     1  2 1 1
     2  3 2 1
     3  4 3 ar
     4  5 4 ar
     5  6 5 ar
     6  7 6 ar
     7  8 3 ar
     8  8 7 ar
     9  9 8 1
    10 10 9 1
    11 11 10 2
    12 12 2 1
    13 12 10 1
    14 13 12 2
    15 14 9 1
    16 15 1 1
    17 16 1 1
    18 17 1 1
    19 18 4 1
    20 19 5 1
    21 20 6 1
    22 21 7 1
    23 22 14 1
    24 23 14 1
    25 24 14 1
@<TRIPOS>SUBSTRUCTURE
1     ****    1
@<TRIPOS>MOLECULE
ZINC00016359
16 16 1 0 0 
SMALL
USER_CHARGES


@<TRIPOS>ATOM
      1 C1          6.1940  -10.3440   -3.6220 C.2     1     ****   -0.2250 
      2 C2          5.1110   -9.6080   -3.3420 C.2     1     ****   -0.0960 
      3 C3          4.5950   -9.3370   -2.0140 C.2     1     ****   -0.2240 
      4 C4          4.5760  -10.2410   -1.0220 C.2     1     ****    0.0520 
      5 N1          4.0550   -9.9800    0.2160 N.am    1     ****   -0.4670 
      6 C5          3.4870   -8.7700    0.5630 C.2     1     ****    0.8030 
      7 O1          3.0240   -8.5470    1.6800 O.2     1     ****   -0.6340 
      8 N2          3.4780   -7.8260   -0.4550 N.am    1     ****   -0.5840 
      9 C6          3.9770   -7.9990   -1.7360 C.2     1     ****    0.7200 
     10 O2          3.9250   -7.1190   -2.5920 O.2     1     ****   -0.6050 
     11 H1          4.0840  -10.7160    0.9150 H       1     ****    0.3560 
     12 H2          3.0630   -6.9250   -0.2410 H       1     ****    0.3560 
     13 H3          6.5090  -10.4810   -4.6510 H       1     ****    0.1230 
     14 H4          6.7920  -10.8160   -2.8500 H       1     ****    0.1030 
     15 H5          4.5740   -9.1470   -4.1690 H       1     ****    0.1550 
     16 H6          4.9720  -11.2440   -1.1390 H       1     ****    0.1670 
@<TRIPOS>BOND
     1  2 1 2
     2  3 2 1
     3  4 3 2
     4  5 4 1
     5  6 5 1
     6  7 6 2
     7  8 6 1
     8  9 3 1
     9  9 8 1
    10 10 9 2
    11 11 5 1
    12 12 8 1
    13 13 1 1
    14 14 1 1
    15 15 2 1
    16 16 4 1
@<TRIPOS>SUBSTRUCTURE
1     ****    1
@<TRIPOS>MOLECULE
ZINC00017287
36 39 1 0 0 
SMALL
USER_CHARGES


@<TRIPOS>ATOM
      1 C1          5.2180   -6.6010   -0.0770 C.ar    1     ****   -0.1260 
      2 C2          5.2640   -6.9170   -1.4330 C.ar    1     ****   -0.1320 
      3 C3          4.8780   -5.9710   -2.3860 C.ar    1     ****   -0.0990 
      4 C4          4.4460   -4.6900   -1.9990 C.ar    1     ****   -0.0440 
      5 C5          4.3950   -4.3960   -0.6250 C.ar    1     ****   -0.1150 
      6 C6          4.7820   -5.3420    0.3270 C.ar    1     ****   -0.1360 
      7 C7          4.0250   -3.6920   -3.0040 C.ar    1     ****   -0.0260 
      8 C8          2.9220   -4.0200   -3.8250 C.ar    1     ****   -0.1140 
      9 C9          2.3610   -3.0940   -4.7040 C.ar    1     ****   -0.1310 
     10 C10         2.8820   -1.8110   -4.7750 C.ar    1     ****   -0.1190 
     11 C11         3.9750   -1.4610   -3.9840 C.ar    1     ****   -0.1260 
     12 C12         4.5780   -2.3890   -3.1120 C.ar    1     ****    0.0660 
     13 N1          5.7330   -1.9740   -2.3860 N.am    1     ****   -0.4390 
     14 C13         5.8870   -0.7100   -1.8400 C.2     1     ****    0.7250 
     15 O1          5.1330    0.2460   -1.8030 O.2     1     ****   -0.5630 
     16 C14         7.2040   -0.6990   -1.2080 C.ar    1     ****   -0.1410 
     17 C15         7.8380    0.3000   -0.4970 C.ar    1     ****   -0.0630 
     18 C16         9.1140    0.0190    0.0000 C.ar    1     ****   -0.1190 
     19 C17         9.7170   -1.2360   -0.2230 C.ar    1     ****   -0.1160 
     20 C18         9.0540   -2.2310   -0.9470 C.ar    1     ****   -0.0630 
     21 C19         7.7940   -1.9310   -1.4230 C.ar    1     ****   -0.1360 
     22 C20         6.8720   -2.7430   -2.2160 C.2     1     ****    0.7300 
     23 O2          7.1880   -3.8300   -2.6640 O.2     1     ****   -0.5480 
     24 H1          5.5190   -7.3370    0.6630 H       1     ****    0.1300 
     25 H2          5.6030   -7.8990   -1.7510 H       1     ****    0.1320 
     26 H3          4.9310   -6.2390   -3.4390 H       1     ****    0.1390 
     27 H4          4.0480   -3.4240   -0.2830 H       1     ****    0.1370 
     28 H5          4.7390   -5.0960    1.3840 H       1     ****    0.1300 
     29 H6          2.4650   -5.0060   -3.7600 H       1     ****    0.1410 
     30 H7          1.5090   -3.3730   -5.3160 H       1     ****    0.1350 
     31 H8          2.4460   -1.0830   -5.4530 H       1     ****    0.1370 
     32 H9          4.3780   -0.4570   -4.0990 H       1     ****    0.1470 
     33 H10         7.3730    1.2650   -0.3270 H       1     ****    0.1590 
     34 H11         9.6510    0.7760    0.5660 H       1     ****    0.1440 
     35 H12        10.7110   -1.4290    0.1730 H       1     ****    0.1440 
     36 H13         9.5170   -3.1960   -1.1230 H       1     ****    0.1600 
@<TRIPOS>BOND
     1  2 1 ar
     2  3 2 ar
     3  4 3 ar
     4  5 4 ar
     5  6 1 ar
     6  6 5 ar
     7  7 4 1
     8  8 7 ar
     9  9 8 ar
    10 10 9 ar
    11 11 10 ar
    12 12 7 ar
    13 12 11 ar
    14 13 12 1
    15 14 13 1
    16 15 14 2
    17 16 14 1
    18 17 16 ar
    19 18 17 ar
    20 19 18 ar
    21 20 19 ar
    22 21 16 ar
    23 21 20 ar
    24 22 13 1
    25 22 21 1
    26 23 22 2
    27 24 1 1
    28 25 2 1
    29 26 3 1
    30 27 5 1
    31 28 6 1
    32 29 8 1
    33 30 9 1
    34 31 10 1
    35 32 11 1
    36 33 17 1
    37 34 18 1
    38 35 19 1
    39 36 20 1
@<TRIPOS>SUBSTRUCTURE
1     ****    1
@<TRIPOS>MOLECULE
ZINC00017299
33 36 1 0 0 
SMALL
USER_CHARGES


@<TRIPOS>ATOM
      1 C1          3.3820   -2.6170    0.1820 C.3     1     ****   -0.0850 
      2 C2          2.2230   -1.6280    0.0460 C.3     1     ****    0.0300 
      3 C3          2.3390   -0.5380    1.0490 C.2     1     ****    0.4080 
      4 N1          2.4000   -0.5300    2.3590 N.2     1     ****   -0.5330 
      5 C4          2.5420    0.8070    2.6900 C.ar    1     ****    0.0620 
      6 C5          2.6710    1.4050    3.9550 C.ar    1     ****   -0.0660 
      7 C6          2.8170    2.7950    4.0290 C.ar    1     ****   -0.1550 
      8 C7          2.8350    3.5790    2.8730 C.ar    1     ****   -0.1080 
      9 C8          2.7070    3.0050    1.6040 C.ar    1     ****   -0.1340 
     10 C9          2.5570    1.6180    1.5500 C.ar    1     ****   -0.0360 
     11 N2          2.3970    0.7300    0.5350 N.pl3   1     ****   -0.1860 
     12 C10         2.3590    0.8560   -0.9110 C.3     1     ****    0.2290 
     13 S1          2.2260   -0.8280   -1.5880 S.3     1     ****   -0.3260 
     14 C11         1.2220    1.7460   -1.3850 C.ar    1     ****   -0.1820 
     15 C12        -0.1020    1.5800   -0.9520 C.ar    1     ****    0.1920 
     16 C13        -1.1310    2.4040   -1.4080 C.ar    1     ****   -0.1850 
     17 C14        -0.8540    3.4170   -2.3220 C.ar    1     ****   -0.0670 
     18 C15         0.4490    3.5980   -2.7780 C.ar    1     ****   -0.1850 
     19 C16         1.4680    2.7670   -2.3130 C.ar    1     ****    0.1660 
     20 F1          2.7110    2.9650   -2.7760 F       1     ****   -0.1320 
     21 F2         -0.4100    0.6070   -0.0810 F       1     ****   -0.1190 
     22 H1          3.3040   -3.4200   -0.5600 H       1     ****    0.0520 
     23 H2          4.3560   -2.1270    0.0580 H       1     ****    0.0570 
     24 H3          3.3800   -3.0830    1.1740 H       1     ****    0.0640 
     25 H4          1.3130   -2.2160    0.2440 H       1     ****    0.1100 
     26 H5          2.6620    0.8020    4.8580 H       1     ****    0.1490 
     27 H6          2.9190    3.2710    5.0010 H       1     ****    0.1340 
     28 H7          2.9520    4.6560    2.9610 H       1     ****    0.1330 
     29 H8          2.7200    3.6170    0.7090 H       1     ****    0.1400 
     30 H9          3.2950    1.3650   -1.1980 H       1     ****    0.1090 
     31 H10        -2.1460    2.2520   -1.0510 H       1     ****    0.1590 
     32 H11        -1.6520    4.0610   -2.6800 H       1     ****    0.1480 
     33 H12         0.6730    4.3830   -3.4950 H       1     ****    0.1580 
@<TRIPOS>BOND
     1  2 1 1
     2  3 2 1
     3  4 3 2
     4  5 4 1
     5  6 5 ar
     6  7 6 ar
     7  8 7 ar
     8  9 8 ar
     9 10 5 ar
    10 10 9 ar
    11 11 3 1
    12 11 10 1
    13 12 11 1
    14 13 2 1
    15 13 12 1
    16 14 12 1
    17 15 14 ar
    18 16 15 ar
    19 17 16 ar
    20 18 17 ar
    21 19 14 ar
    22 19 18 ar
    23 20 19 1
    24 21 15 1
    25 22 1 1
    26 23 1 1
    27 24 1 1
    28 25 2 1
    29 26 6 1
    30 27 7 1
    31 28 8 1
    32 29 9 1
    33 30 12 1
    34 31 16 1
    35 32 17 1
    36 33 18 1
@<TRIPOS>SUBSTRUCTURE
1     ****    1
@<TRIPOS>MOLECULE
ZINC00017529
23 25 1 0 0 
SMALL
USER_CHARGES


@<TRIPOS>ATOM
      1 C1          5.8200   -9.2250   -1.3150 C.3     1     ****   -0.2070 
      2 C2          5.7050   -8.5210    0.0180 C.2     1     ****    0.6060 
      3 O1          6.0700   -9.1120    1.0360 O.2     1     ****   -0.5130 
      4 C3          5.1680   -7.1670    0.0610 C.2     1     ****   -0.2550 
      5 C4          4.9970   -6.3890    1.1920 C.2     1     ****   -0.0370 
      6 C5          4.4460   -5.1030    0.9050 C.2     1     ****   -0.1730 
      7 C6          4.2150   -4.9520   -0.4520 C.2     1     ****   -0.1850 
      8 S1          4.6570   -6.3320   -1.3420 S.2     1     ****    0.2280 
      9 C7          3.6610   -3.7740   -1.1040 C.2     1     ****    0.6550 
     10 O2          3.4660   -3.6660   -2.3100 O.2     1     ****   -0.5320 
     11 C8          3.3710   -2.7440   -0.1170 C.2     1     ****   -0.2080 
     12 C9          3.5810   -2.8390    1.2510 C.2     1     ****   -0.1530 
     13 C10         3.1840   -1.6410    1.9210 C.2     1     ****   -0.1040 
     14 C11         2.6950   -0.6930    1.0490 C.2     1     ****   -0.2040 
     15 S2          2.7110   -1.2400   -0.5720 S.2     1     ****    0.2040 
     16 C12         4.1400   -4.0430    1.8630 C.2     1     ****    0.6260 
     17 O3          4.3350   -4.1520    3.0670 O.2     1     ****   -0.5110 
     18 H1          6.2410  -10.2240   -1.1620 H       1     ****    0.0780 
     19 H2          4.8340   -9.3400   -1.7710 H       1     ****    0.0650 
     20 H3          6.4920   -8.6750   -1.9790 H       1     ****    0.0650 
     21 H4          5.2580   -6.7280    2.1880 H       1     ****    0.1930 
     22 H5          3.2540   -1.4800    2.9890 H       1     ****    0.1780 
     23 H6          2.3280    0.2960    1.2870 H       1     ****    0.1830 
@<TRIPOS>BOND
     1  2 1 1
     2  3 2 2
     3  4 2 1
     4  5 4 2
     5  6 5 1
     6  7 6 ar
     7  8 4 1
     8  8 7 1
     9  9 7 1
    10 10 9 2
    11 11 9 1
    12 12 11 ar
    13 13 12 1
    14 14 13 2
    15 15 11 1
    16 15 14 1
    17 16 6 1
    18 16 12 1
    19 17 16 2
    20 18 1 1
    21 19 1 1
    22 20 1 1
    23 21 5 1
    24 22 13 1
    25 23 14 1
@<TRIPOS>SUBSTRUCTURE
1     ****    1
@<TRIPOS>MOLECULE
ZINC00018721
21 22 1 0 0 
SMALL
USER_CHARGES


@<TRIPOS>ATOM
      1 C1          5.0960   -7.4360   -1.4520 C.3     1     ****   -0.0650 
      2 C2          3.7950   -7.0050   -0.8450 C.ar    1     ****   -0.0160 
      3 C3          3.3480   -7.5730    0.3490 C.ar    1     ****   -0.1670 
      4 C4          2.1530   -7.1410    0.9190 C.ar    1     ****   -0.0410 
      5 C5          1.4000   -6.1250    0.2970 C.ar    1     ****   -0.3210 
      6 C6          1.8400   -5.5360   -0.8920 C.ar    1     ****    0.5010 
      7 C7          3.0380   -5.9840   -1.4420 C.ar    1     ****   -0.2150 
      8 N1          1.1370   -4.5680   -1.4880 N.ar    1     ****   -0.7910 
      9 C8         -0.0140   -4.1680   -0.9190 C.ar    1     ****    0.9090 
     10 N2         -0.5050   -4.6810    0.2170 N.ar    1     ****   -0.6920 
     11 N3          0.1980   -5.6510    0.8180 N.ar    1     ****    0.7730 
     12 O1         -0.3030   -6.1050    1.8880 O.3     1     ****   -0.4590 
     13 N4         -0.7330   -3.1680   -1.5430 N.pl3   1     ****   -0.9520 
     14 H1         -0.3850   -2.7640   -2.4000 H       1     ****    0.4560 
     15 H2         -1.6010   -2.8490   -1.1360 H       1     ****    0.4560 
     16 H3          5.3130   -8.4820   -1.2120 H       1     ****    0.0510 
     17 H4          5.0640   -7.3550   -2.5440 H       1     ****    0.0520 
     18 H5          5.9110   -6.8110   -1.0740 H       1     ****    0.0570 
     19 H6          3.9250   -8.3520    0.8420 H       1     ****    0.1440 
     20 H7          1.8140   -7.5950    1.8470 H       1     ****    0.1640 
     21 H8          3.3960   -5.5290   -2.3650 H       1     ****    0.1580 
@<TRIPOS>BOND
     1  2 1 1
     2  3 2 ar
     3  4 3 ar
     4  5 4 ar
     5  6 5 ar
     6  7 2 ar
     7  7 6 ar
     8  8 6 ar
     9  9 8 ar
    10 10 9 ar
    11 11 5 ar
    12 11 10 ar
    13 12 11 1
    14 13 9 1
    15 14 13 1
    16 15 13 1
    17 16 1 1
    18 17 1 1
    19 18 1 1
    20 19 3 1
    21 20 4 1
    22 21 7 1
@<TRIPOS>SUBSTRUCTURE
1     ****    1
@<TRIPOS>MOLECULE
ZINC00020014
23 24 1 0 0 
SMALL
USER_CHARGES


@<TRIPOS>ATOM
      1 C1          3.8500   -8.5610   -1.5330 C.ar    1     ****   -0.1080 
      2 C2          4.0490   -7.2950   -2.0810 C.ar    1     ****   -0.1400 
      3 C3          4.0320   -6.1660   -1.2600 C.ar    1     ****   -0.0850 
      4 C4          3.8090   -6.2990    0.1150 C.ar    1     ****   -0.0540 
      5 C5          3.6180   -7.5740    0.6620 C.ar    1     ****   -0.0920 
      6 C6          3.6370   -8.7010   -0.1620 C.ar    1     ****   -0.1430 
      7 S1          3.7940   -4.8620    1.1740 S.3     1     ****   -0.1140 
      8 C7          2.1670   -4.3530    0.8990 C.2     1     ****   -0.2300 
      9 C8          1.1230   -4.8600    1.5660 C.2     1     ****    0.1150 
     10 N1         -0.1610   -4.4400    1.3430 N.am    1     ****   -0.4660 
     11 C9         -0.4920   -3.4630    0.4220 C.2     1     ****    0.8040 
     12 O1         -1.6500   -3.0950    0.2290 O.2     1     ****   -0.6270 
     13 N2          0.5900   -2.9270   -0.2670 N.am    1     ****   -0.5850 
     14 C10         1.9230   -3.2800   -0.1100 C.2     1     ****    0.7310 
     15 O2          2.8270   -2.7520   -0.7520 O.2     1     ****   -0.5990 
     16 H1         -0.9080   -4.8690    1.8800 H       1     ****    0.3570 
     17 H2          0.3850   -2.2030   -0.9490 H       1     ****    0.3560 
     18 H3          3.8650   -9.4390   -2.1720 H       1     ****    0.1330 
     19 H4          4.2200   -7.1870   -3.1480 H       1     ****    0.1370 
     20 H5          4.1940   -5.1880   -1.7070 H       1     ****    0.1640 
     21 H6          3.4530   -7.7040    1.7280 H       1     ****    0.1370 
     22 H7          3.4850   -9.6880    0.2660 H       1     ****    0.1330 
     23 H8          1.2250   -5.6320    2.3200 H       1     ****    0.1750 
@<TRIPOS>BOND
     1  2 1 ar
     2  3 2 ar
     3  4 3 ar
     4  5 4 ar
     5  6 1 ar
     6  6 5 ar
     7  7 4 1
     8  8 7 1
     9  9 8 2
    10 10 9 1
    11 11 10 1
    12 12 11 2
    13 13 11 1
    14 14 8 1
    15 14 13 1
    16 15 14 2
    17 16 10 1
    18 17 13 1
    19 18 1 1
    20 19 2 1
    21 20 3 1
    22 21 5 1
    23 22 6 1
    24 23 9 1
@<TRIPOS>SUBSTRUCTURE
1     ****    1
@<TRIPOS>MOLECULE
ZINC00021265
36 38 1 0 0 
SMALL
USER_CHARGES


@<TRIPOS>ATOM
      1 C1          8.8620   -9.1550    1.4040 C.3     1     ****    0.0850 
      2 C2          7.3450   -7.4420    0.4020 C.3     1     ****    0.0690 
      3 C3          5.9520   -6.8240    0.5130 C.3     1     ****    0.1720 
      4 N1          5.7660   -6.2380    1.8440 N.3     1     ****   -0.6350 
      5 C4          5.9780   -7.1720    2.9580 C.3     1     ****    0.1820 
      6 C5          7.3670   -7.7970    2.8750 C.3     1     ****    0.0640 
      7 C6          5.3110   -4.9310    2.0470 C.2     1     ****   -0.0240 
      8 C7          4.1910   -4.3830    1.5380 C.2     1     ****    0.0030 
      9 C8          3.7760   -2.9780    1.7900 C.2     1     ****    0.5660 
     10 O1          2.7730   -2.4930    1.2790 O.2     1     ****   -0.4480 
     11 C9          4.6110   -2.1720    2.6910 C.ar    1     ****   -0.1310 
     12 C10         4.2270   -0.8610    3.0040 C.ar    1     ****   -0.0700 
     13 C11         5.0120   -0.0870    3.8580 C.ar    1     ****   -0.0920 
     14 C12         6.1800   -0.6180    4.4010 C.ar    1     ****   -0.1080 
     15 C13         6.5640   -1.9220    4.0890 C.ar    1     ****   -0.0690 
     16 C14         5.7770   -2.7030    3.2320 C.ar    1     ****   -0.1510 
     17 C15         6.2020   -4.0760    2.9050 C.2     1     ****    0.5910 
     18 O2          7.2790   -4.4900    3.3240 O.2     1     ****   -0.5780 
     19 CL1         3.0680   -5.3060    0.5860 Cl      1     ****   -0.0070 
     20 H1          8.9150   -9.9010    2.2010 H       1     ****    0.1020 
     21 H2          8.8990   -9.6480    0.4290 H       1     ****    0.1020 
     22 H3          9.6650   -8.4200    1.5020 H       1     ****    0.1120 
     23 H4          8.1330   -6.6860    0.4970 H       1     ****    0.1230 
     24 H5          7.4580   -7.9770   -0.5470 H       1     ****    0.1050 
     25 H6          5.8510   -6.0650   -0.2720 H       1     ****    0.1110 
     26 H7          5.1850   -7.5880    0.3370 H       1     ****    0.0800 
     27 H8          5.8590   -6.6750    3.9280 H       1     ****    0.1080 
     28 H9          5.2100   -7.9540    2.9140 H       1     ****    0.0800 
     29 H10         7.4850   -8.5810    3.6310 H       1     ****    0.1010 
     30 H11         8.1620   -7.0530    2.9870 H       1     ****    0.1370 
     31 H12         3.3190   -0.4270    2.5910 H       1     ****    0.1730 
     32 H13         4.7130    0.9290    4.1000 H       1     ****    0.1610 
     33 H14         6.7920   -0.0150    5.0660 H       1     ****    0.1580 
     34 H15         7.4810   -2.3140    4.5240 H       1     ****    0.1580 
     35 N2          7.5430   -8.4460    1.5170 N.4     1     ****   -0.6730 
     36 H16         6.8120   -9.1630    1.4210 H       1     ****    0.4430 
@<TRIPOS>BOND
     1  3 2 1
     2  4 3 1
     3  5 4 1
     4  6 5 1
     5  7 4 1
     6  8 7 2
     7  9 8 1
     8 10 9 2
     9 11 9 1
    10 12 11 ar
    11 13 12 ar
    12 14 13 ar
    13 15 14 ar
    14 16 11 ar
    15 16 15 ar
    16 17 7 1
    17 17 16 1
    18 18 17 2
    19 19 8 1
    20 20 1 1
    21 21 1 1
    22 22 1 1
    23 23 2 1
    24 24 2 1
    25 25 3 1
    26 26 3 1
    27 27 5 1
    28 28 5 1
    29 29 6 1
    30 30 6 1
    31 31 12 1
    32 32 13 1
    33 33 14 1
    34 34 15 1
    35 35 1 1
    36 35 2 1
    37 35 6 1
    38 36 35 1
@<TRIPOS>SUBSTRUCTURE
1     ****    1
@<TRIPOS>MOLECULE
ZINC00021489
26 28 1 0 0 
SMALL
USER_CHARGES


@<TRIPOS>ATOM
      1 C1          5.9270   -9.1260   -1.4110 C.ar    1     ****   -0.1310 
      2 C2          4.8380   -9.8090   -0.8800 C.ar    1     ****   -0.1220 
      3 C3          3.8320   -9.1270   -0.1900 C.ar    1     ****   -0.0900 
      4 C4          3.9500   -7.7350   -0.0470 C.ar    1     ****   -0.0880 
      5 C5          5.0320   -7.0300   -0.5710 C.ar    1     ****    0.0890 
      6 C6          6.0350   -7.7400   -1.2640 C.ar    1     ****   -0.0760 
      7 N1          5.0040   -5.6630   -0.3480 N.2     1     ****   -0.5310 
      8 C7          3.9330   -5.3190    0.3390 C.2     1     ****    0.4440 
      9 S1          2.8900   -6.6310    0.7350 S.2     1     ****   -0.0580 
     10 C8          3.6150   -3.9300    0.7190 C.ar    1     ****   -0.1820 
     11 C9          2.7380   -3.6040    1.7620 C.ar    1     ****   -0.0540 
     12 C10         2.4740   -2.2680    2.0890 C.ar    1     ****   -0.2100 
     13 C11         3.0690   -1.2160    1.3850 C.ar    1     ****    0.2200 
     14 C12         3.9610   -1.5400    0.3550 C.ar    1     ****   -0.1190 
     15 C13         4.2290   -2.8760    0.0240 C.ar    1     ****   -0.0080 
     16 BR1         4.8430   -0.1830   -0.6440 Br      1     ****   -0.0910 
     17 N2          2.8050    0.0950    1.7550 N.pl3   1     ****   -0.8450 
     18 H1          2.1140    0.3010    2.4640 H       1     ****    0.4160 
     19 H2          3.1960    0.8580    1.2170 H       1     ****    0.4270 
     20 H3          6.7000   -9.6730   -1.9440 H       1     ****    0.1360 
     21 H4          4.7670  -10.8870   -1.0020 H       1     ****    0.1350 
     22 H5          2.9830   -9.6650    0.2220 H       1     ****    0.1390 
     23 H6          6.8890   -7.2130   -1.6810 H       1     ****    0.1510 
     24 H7          2.2480   -4.3730    2.3550 H       1     ****    0.1410 
     25 H8          1.7910   -2.0570    2.9100 H       1     ****    0.1400 
     26 H9          4.9220   -3.0950   -0.7870 H       1     ****    0.1680 
@<TRIPOS>BOND
     1  2 1 ar
     2  3 2 ar
     3  4 3 ar
     4  5 4 ar
     5  6 1 ar
     6  6 5 ar
     7  7 5 1
     8  8 7 2
     9  9 4 1
    10  9 8 1
    11 10 8 1
    12 11 10 ar
    13 12 11 ar
    14 13 12 ar
    15 14 13 ar
    16 15 10 ar
    17 15 14 ar
    18 16 14 1
    19 17 13 1
    20 18 17 1
    21 19 17 1
    22 20 1 1
    23 21 2 1
    24 22 3 1
    25 23 6 1
    26 24 11 1
    27 25 12 1
    28 26 15 1
@<TRIPOS>SUBSTRUCTURE
1     ****    1
@<TRIPOS>MOLECULE
ZINC00021490
26 28 1 0 0 
SMALL
USER_CHARGES


@<TRIPOS>ATOM
      1 C1          0.7530   -6.6360    3.5060 C.ar    1     ****   -0.1310 
      2 C2          1.8240   -7.4290    3.9020 C.ar    1     ****   -0.1220 
      3 C3          3.0650   -7.3270    3.2670 C.ar    1     ****   -0.0900 
      4 C4          3.2000   -6.4030    2.2180 C.ar    1     ****   -0.0890 
      5 C5          2.1400   -5.5990    1.8030 C.ar    1     ****    0.0890 
      6 C6          0.8970   -5.7190    2.4610 C.ar    1     ****   -0.0760 
      7 N1          2.4310   -4.7380    0.7570 N.2     1     ****   -0.5300 
      8 C7          3.6820   -4.8800    0.3650 C.2     1     ****    0.4420 
      9 S1          4.5800   -6.0490    1.2560 S.2     1     ****   -0.0560 
     10 C8          4.2930   -4.0910   -0.7210 C.ar    1     ****   -0.1700 
     11 C9          5.4490   -4.4950   -1.4030 C.ar    1     ****   -0.0670 
     12 C10         5.9890   -3.7130   -2.4320 C.ar    1     ****   -0.2000 
     13 C11         5.3970   -2.5030   -2.8100 C.ar    1     ****    0.1910 
     14 C12         4.2310   -2.1070   -2.1430 C.ar    1     ****   -0.0690 
     15 C13         3.6880   -2.8870   -1.1130 C.ar    1     ****   -0.0300 
     16 CL1         3.4220   -0.6370   -2.5660 Cl      1     ****   -0.0980 
     17 N2          5.9390   -1.7650   -3.8530 N.pl3   1     ****   -0.8340 
     18 H1          6.8130   -2.0430   -4.2800 H       1     ****    0.4090 
     19 H2          5.5390   -0.8680   -4.0940 H       1     ****    0.4180 
     20 H3         -0.2050   -6.7290    4.0110 H       1     ****    0.1360 
     21 H4          1.6970   -8.1370    4.7170 H       1     ****    0.1350 
     22 H5          3.8980   -7.9480    3.5810 H       1     ****    0.1390 
     23 H6          0.0560   -5.1030    2.1560 H       1     ****    0.1510 
     24 H7          5.9540   -5.4280   -1.1640 H       1     ****    0.1410 
     25 H8          6.8840   -4.0640   -2.9410 H       1     ****    0.1400 
     26 H9          2.7840   -2.5450   -0.6100 H       1     ****    0.1690 
@<TRIPOS>BOND
     1  2 1 ar
     2  3 2 ar
     3  4 3 ar
     4  5 4 ar
     5  6 1 ar
     6  6 5 ar
     7  7 5 1
     8  8 7 2
     9  9 4 1
    10  9 8 1
    11 10 8 1
    12 11 10 ar
    13 12 11 ar
    14 13 12 ar
    15 14 13 ar
    16 15 10 ar
    17 15 14 ar
    18 16 14 1
    19 17 13 1
    20 18 17 1
    21 19 17 1
    22 20 1 1
    23 21 2 1
    24 22 3 1
    25 23 6 1
    26 24 11 1
    27 25 12 1
    28 26 15 1
@<TRIPOS>SUBSTRUCTURE
1     ****    1
@<TRIPOS>MOLECULE
ZINC00023389
42 45 1 0 0 
SMALL
USER_CHARGES


@<TRIPOS>ATOM
      1 C1          7.1560   -8.5730   -2.7330 C.ar    1     ****   -0.1240 
      2 C2          6.2270   -7.9170   -1.9220 C.ar    1     ****   -0.1200 
      3 C3          5.7970   -8.4890   -0.7150 C.ar    1     ****   -0.0940 
      4 C4          6.3220   -9.7360   -0.3370 C.ar    1     ****   -0.1010 
      5 C5          7.2510  -10.3870   -1.1520 C.ar    1     ****    0.0130 
      6 C6          7.6700   -9.8100   -2.3490 C.ar    1     ****   -0.1170 
      7 CL1         7.8850  -11.9150   -0.6730 Cl      1     ****   -0.0900 
      8 C7          4.7880   -7.7570    0.1460 C.3     1     ****    0.2500 
      9 C8          3.4770   -8.5460    0.2660 C.3     1     ****   -0.1780 
     10 C9          2.5240   -7.8490    1.2080 C.2     1     ****    0.5870 
     11 O1          1.3090   -7.8720    1.0400 O.2     1     ****   -0.5430 
     12 C10         3.1210   -7.1980    2.3990 C.ar    1     ****   -0.1970 
     13 C11         2.2910   -6.7350    3.4330 C.ar    1     ****   -0.1010 
     14 C12         2.8190   -6.1670    4.6050 C.ar    1     ****    0.1040 
     15 C13         4.2200   -6.0990    4.6850 C.ar    1     ****   -0.1130 
     16 C14         5.0500   -6.5570    3.6520 C.ar    1     ****   -0.1700 
     17 C15         4.5130   -7.0950    2.4820 C.ar    1     ****    0.1450 
     18 N1          5.3500   -7.5390    1.4670 N.pl3   1     ****   -0.7220 
     19 N2          2.0090   -5.7100    5.6220 N.pl3   1     ****   -0.6340 
     20 C16         0.5520   -5.6330    5.5410 C.3     1     ****    0.1810 
     21 C17         0.1620   -4.7940    6.7550 C.3     1     ****   -0.0870 
     22 C18         1.2410   -5.1340    7.7690 C.3     1     ****   -0.0880 
     23 C19         2.5010   -5.2350    6.9140 C.3     1     ****    0.1820 
     24 H1          6.3440   -7.3550    1.5520 H       1     ****    0.4050 
     25 H2          7.4790   -8.1170   -3.6650 H       1     ****    0.1400 
     26 H3          5.8410   -6.9520   -2.2430 H       1     ****    0.1380 
     27 H4          6.0080  -10.1960    0.5970 H       1     ****    0.1620 
     28 H5          8.3920  -10.3110   -2.9880 H       1     ****    0.1490 
     29 H6          4.5330   -6.7910   -0.3230 H       1     ****    0.0390 
     30 H7          3.0020   -8.6260   -0.7200 H       1     ****    0.0830 
     31 H8          3.6300   -9.5630    0.6480 H       1     ****    0.0880 
     32 H9          1.2140   -6.8410    3.3210 H       1     ****    0.1570 
     33 H10         4.7060   -5.6750    5.5610 H       1     ****    0.1360 
     34 H11         6.1280   -6.4740    3.7720 H       1     ****    0.1360 
     35 H12         0.2050   -5.1480    4.6220 H       1     ****    0.0610 
     36 H13         0.1170   -6.6370    5.6090 H       1     ****    0.0330 
     37 H14         0.2080   -3.7270    6.5060 H       1     ****    0.0530 
     38 H15        -0.8460   -5.0190    7.1130 H       1     ****    0.0520 
     39 H16         1.3320   -4.3860    8.5620 H       1     ****    0.0530 
     40 H17         1.0230   -6.1030    8.2350 H       1     ****    0.0480 
     41 H18         3.2130   -5.9280    7.3750 H       1     ****    0.0330 
     42 H19         2.9700   -4.2520    6.8000 H       1     ****    0.0520 
@<TRIPOS>BOND
     1  2 1 ar
     2  3 2 ar
     3  4 3 ar
     4  5 4 ar
     5  6 1 ar
     6  6 5 ar
     7  7 5 1
     8  8 3 1
     9  9 8 1
    10 10 9 1
    11 11 10 2
    12 12 10 1
    13 13 12 ar
    14 14 13 ar
    15 15 14 ar
    16 16 15 ar
    17 17 12 ar
    18 17 16 ar
    19 18 8 1
    20 18 17 1
    21 19 14 1
    22 20 19 1
    23 21 20 1
    24 22 21 1
    25 23 19 1
    26 23 22 1
    27 24 18 1
    28 25 1 1
    29 26 2 1
    30 27 4 1
    31 28 6 1
    32 29 8 1
    33 30 9 1
    34 31 9 1
    35 32 13 1
    36 33 15 1
    37 34 16 1
    38 35 20 1
    39 36 20 1
    40 37 21 1
    41 38 21 1
    42 39 22 1
    43 40 22 1
    44 41 23 1
    45 42 23 1
@<TRIPOS>SUBSTRUCTURE
1     ****    1
@<TRIPOS>MOLECULE
ZINC00023550
21 22 1 0 0 
SMALL
USER_CHARGES


@<TRIPOS>ATOM
      1 C1          5.8520   -5.1230    0.4580 C.3     1     ****   -0.0580 
      2 S1          5.2620   -6.7500    1.0000 S.3     1     ****   -0.2530 
      3 C2          3.8590   -7.0120   -0.1030 C.ar    1     ****    0.5180 
      4 C3          3.0810   -8.1970   -0.0250 C.ar    1     ****   -0.1460 
      5 C4          3.2950   -9.2680    0.8810 C.ar    1     ****   -0.0970 
      6 C5          2.4750  -10.3980    0.8850 C.ar    1     ****   -0.1330 
      7 C6          1.4200  -10.4930   -0.0120 C.ar    1     ****   -0.1100 
      8 C7          1.1840   -9.4580   -0.9140 C.ar    1     ****   -0.1280 
      9 C8          2.0000   -8.3140   -0.9310 C.ar    1     ****   -0.0010 
     10 C9          1.7460   -7.2880   -1.8440 C.ar    1     ****   -0.2440 
     11 C10         2.5660   -6.1780   -1.8340 C.ar    1     ****    0.4020 
     12 N1          3.6060   -6.0200   -0.9930 N.ar    1     ****   -0.6940 
     13 H1          6.7200   -4.8420    1.0610 H       1     ****    0.0750 
     14 H2          6.1590   -5.1530   -0.5920 H       1     ****    0.0760 
     15 H3          5.0780   -4.3640    0.5960 H       1     ****    0.0730 
     16 H4          4.1080   -9.2390    1.6030 H       1     ****    0.1470 
     17 H5          2.6630  -11.2020    1.5910 H       1     ****    0.1360 
     18 H6          0.7800  -11.3710   -0.0120 H       1     ****    0.1350 
     19 H7          0.3510   -9.5540   -1.6090 H       1     ****    0.1370 
     20 H8          0.9260   -7.3460   -2.5530 H       1     ****    0.1440 
     21 H9          2.4030   -5.3590   -2.5270 H       1     ****    0.0220 
@<TRIPOS>BOND
     1  2 1 1
     2  3 2 1
     3  4 3 ar
     4  5 4 ar
     5  6 5 ar
     6  7 6 ar
     7  8 7 ar
     8  9 4 ar
     9  9 8 ar
    10 10 9 ar
    11 11 10 ar
    12 12 3 ar
    13 12 11 ar
    14 13 1 1
    15 14 1 1
    16 15 1 1
    17 16 5 1
    18 17 6 1
    19 18 7 1
    20 19 8 1
    21 20 10 1
    22 21 11 1
@<TRIPOS>SUBSTRUCTURE
1     ****    1
@<TRIPOS>MOLECULE
ZINC00023825
22 24 1 0 0 
SMALL
USER_CHARGES


@<TRIPOS>ATOM
      1 C1         -0.7990    0.8950    2.6220 C.2     1     ****   -0.1050 
      2 C2          0.4060    0.2590    2.8260 C.2     1     ****   -0.2050 
      3 S1          1.5450    0.6320    1.6050 S.2     1     ****    0.1950 
      4 C3          0.4340    1.6430    0.7990 C.2     1     ****   -0.2010 
      5 C4         -0.7920    1.7030    1.4430 C.2     1     ****   -0.1550 
      6 C5         -1.8950    2.5110    0.9270 C.2     1     ****    0.6270 
      7 O1         -2.9870    2.5830    1.4770 O.2     1     ****   -0.5190 
      8 C6         -1.5740    3.2270   -0.3060 C.2     1     ****   -0.1600 
      9 C7         -2.4380    4.0900   -1.0470 C.2     1     ****   -0.0880 
     10 C8         -1.8300    4.6120   -2.1720 C.2     1     ****   -0.1580 
     11 S2         -0.2170    4.0590   -2.3280 S.2     1     ****    0.2270 
     12 C9         -0.3290    3.1290   -0.9060 C.2     1     ****   -0.2040 
     13 C10         0.7960    2.3380   -0.4270 C.2     1     ****    0.6580 
     14 O2          1.8900    2.2690   -0.9780 O.2     1     ****   -0.5370 
     15 C11        -2.4100    5.5410   -3.1820 C.3     1     ****    0.2080 
     16 O3         -3.0600    4.7390   -4.1580 O.3     1     ****   -0.5930 
     17 H1         -3.4420    5.3450   -4.8150 H       1     ****    0.4050 
     18 H2         -1.6460    0.7840    3.2880 H       1     ****    0.1760 
     19 H3          0.6720   -0.4070    3.6350 H       1     ****    0.1810 
     20 H4         -3.4610    4.3160   -0.7700 H       1     ****    0.1770 
     21 H5         -3.1490    6.2050   -2.7220 H       1     ****    0.0420 
     22 H6         -1.6460    6.1530   -3.6720 H       1     ****    0.0300 
@<TRIPOS>BOND
     1  2 1 2
     2  3 2 1
     3  4 3 1
     4  5 1 1
     5  5 4 ar
     6  6 5 1
     7  7 6 2
     8  8 6 1
     9  9 8 1
    10 10 9 2
    11 11 10 1
    12 12 8 ar
    13 12 11 1
    14 13 4 1
    15 13 12 1
    16 14 13 2
    17 15 10 1
    18 16 15 1
    19 17 16 1
    20 18 1 1
    21 19 2 1
    22 20 9 1
    23 21 15 1
    24 22 15 1
@<TRIPOS>SUBSTRUCTURE
1     ****    1
@<TRIPOS>MOLECULE
ZINC00024246
28 30 1 0 0 
SMALL
USER_CHARGES


@<TRIPOS>ATOM
      1 C1          4.9830   -9.4970   -0.4720 C.ar    1     ****   -0.1190 
      2 C2          3.9930   -8.7840   -1.1420 C.ar    1     ****   -0.1260 
      3 C3          3.6130   -7.5160   -0.6920 C.ar    1     ****   -0.1230 
      4 C4          4.2180   -6.9420    0.4380 C.ar    1     ****   -0.0450 
      5 C5          5.2170   -7.6750    1.0990 C.ar    1     ****   -0.1060 
      6 C6          5.5950   -8.9420    0.6480 C.ar    1     ****   -0.1260 
      7 C7          3.8300   -5.6100    0.9200 C.2     1     ****    0.0040 
      8 C8          4.5180   -4.6990    1.7060 C.2     1     ****   -0.1540 
      9 C9          3.7020   -3.5510    1.9020 C.ar    1     ****   -0.1170 
     10 C10         3.8710   -2.3340    2.5940 C.ar    1     ****   -0.0060 
     11 C11         2.8180   -1.4060    2.5730 C.ar    1     ****   -0.2110 
     12 C12         1.6250   -1.6590    1.8910 C.ar    1     ****   -0.0580 
     13 C13         1.4530   -2.8640    1.2040 C.ar    1     ****   -0.1550 
     14 C14         2.5070   -3.7860    1.2270 C.ar    1     ****   -0.0060 
     15 N1          2.6080   -5.0300    0.6480 N.pl3   1     ****   -0.1790 
     16 N2          2.9770   -0.1420    3.2840 N.2     1     ****    0.3170 
     17 O1          4.1290    0.2650    3.4820 O.2     1     ****   -0.2180 
     18 O2          1.9490    0.4460    3.6470 O.3     1     ****   -0.2160 
     19 H1          1.8720   -5.4600    0.1070 H       1     ****    0.3070 
     20 H2          5.2780  -10.4820   -0.8220 H       1     ****    0.1370 
     21 H3          3.5160   -9.2130   -2.0190 H       1     ****    0.1370 
     22 H4          2.8460   -6.9860   -1.2500 H       1     ****    0.1280 
     23 H5          5.7110   -7.2750    1.9820 H       1     ****    0.1410 
     24 H6          6.3680   -9.4960    1.1750 H       1     ****    0.1390 
     25 H7          5.5170   -4.8370    2.0990 H       1     ****    0.1660 
     26 H8          4.7980   -2.1440    3.1280 H       1     ****    0.1720 
     27 H9          0.8150   -0.9340    1.8730 H       1     ****    0.1690 
     28 H10         0.5320   -3.0730    0.6690 H       1     ****    0.1470 
@<TRIPOS>BOND
     1  2 1 ar
     2  3 2 ar
     3  4 3 ar
     4  5 4 ar
     5  6 1 ar
     6  6 5 ar
     7  7 4 1
     8  8 7 2
     9  9 8 1
    10 10 9 ar
    11 11 10 ar
    12 12 11 ar
    13 13 12 ar
    14 14 9 ar
    15 14 13 ar
    16 15 7 1
    17 15 14 1
    18 16 11 1
    19 17 16 2
    20 18 16 1
    21 19 15 1
    22 20 1 1
    23 21 2 1
    24 22 3 1
    25 23 5 1
    26 24 6 1
    27 25 8 1
    28 26 10 1
    29 27 12 1
    30 28 13 1
@<TRIPOS>SUBSTRUCTURE
1     ****    1
@<TRIPOS>MOLECULE
ZINC00027665
18 19 1 0 0 
SMALL
USER_CHARGES


@<TRIPOS>ATOM
      1 C1          5.8440   -8.9090   -1.5280 C.ar    1     ****   -0.1250 
      2 C2          4.9480   -9.5650   -0.6910 C.ar    1     ****   -0.1260 
      3 C3          3.7260   -8.9780   -0.3500 C.ar    1     ****   -0.0850 
      4 C4          3.4270   -7.7100   -0.8740 C.ar    1     ****   -0.1010 
      5 C5          4.3100   -7.0350   -1.7150 C.ar    1     ****    0.1070 
      6 C6          5.5380   -7.6470   -2.0450 C.ar    1     ****   -0.0840 
      7 N1          3.8740   -5.7940   -2.1500 N.2     1     ****   -0.5860 
      8 C7          2.6800   -5.5140   -1.6650 C.2     1     ****    0.4810 
      9 S1          2.0260   -6.7430   -0.6410 S.2     1     ****   -0.0210 
     10 N2          1.9580   -4.3860   -1.8810 N.pl3   1     ****   -0.5100 
     11 N3          2.4390   -3.5420   -2.8680 N.3     1     ****   -0.6430 
     12 H1          1.0090   -4.2680   -1.5410 H       1     ****    0.4100 
     13 H2          2.1300   -2.5900   -2.6680 H       1     ****    0.3700 
     14 H3          3.4590   -3.5140   -2.8330 H       1     ****    0.3480 
     15 H4          6.7900   -9.3800   -1.7830 H       1     ****    0.1370 
     16 H5          5.1990  -10.5460   -0.2950 H       1     ****    0.1360 
     17 H6          3.0300   -9.4950    0.3050 H       1     ****    0.1400 
     18 H7          6.2430   -7.1410   -2.6990 H       1     ****    0.1510 
@<TRIPOS>BOND
     1  2 1 ar
     2  3 2 ar
     3  4 3 ar
     4  5 4 ar
     5  6 1 ar
     6  6 5 ar
     7  7 5 1
     8  8 7 2
     9  9 4 1
    10  9 8 1
    11 10 8 1
    12 11 10 1
    13 12 10 1
    14 13 11 1
    15 14 11 1
    16 15 1 1
    17 16 2 1
    18 17 3 1
    19 18 6 1
@<TRIPOS>SUBSTRUCTURE
1     ****    1
@<TRIPOS>MOLECULE
ZINC00027675
25 26 1 0 0 
SMALL
USER_CHARGES


@<TRIPOS>ATOM
      1 C1          4.8510   -4.8850    4.6530 C.3     1     ****   -0.0790 
      2 C2          6.0130   -5.3440    3.7750 C.3     1     ****   -0.0970 
      3 C3          5.5780   -6.4660    2.8390 C.3     1     ****    0.0880 
      4 N1          4.4050   -6.0780    2.0530 N.am    1     ****   -0.4550 
      5 C4          3.2500   -5.6280    2.8440 C.3     1     ****    0.1010 
      6 C5          3.6450   -4.5030    3.7990 C.3     1     ****   -0.0980 
      7 C6          4.4600   -6.1500    0.6520 C.2     1     ****    0.6010 
      8 O1          5.4980   -6.3740    0.0300 O.2     1     ****   -0.5780 
      9 C7          3.2130   -5.9530   -0.0860 C.2     1     ****    0.3430 
     10 C8          2.9980   -4.9840   -1.1300 C.2     1     ****   -0.1140 
     11 C9          1.7290   -5.1170   -1.6360 C.2     1     ****   -0.0450 
     12 S1          0.9260   -6.3790   -0.8470 S.2     1     ****    0.3010 
     13 N2          2.1860   -6.7810    0.1520 N.2     1     ****   -0.5060 
     14 CL1         0.9480   -4.2240   -2.8680 Cl      1     ****    0.0120 
     15 CL2         4.1630   -3.8340   -1.6250 Cl      1     ****    0.0010 
     16 H1          5.1610   -4.0300    5.2640 H       1     ****    0.0460 
     17 H2          4.5710   -5.6910    5.3430 H       1     ****    0.0430 
     18 H3          6.3760   -4.4940    3.1830 H       1     ****    0.0520 
     19 H4          6.8440   -5.6820    4.4030 H       1     ****    0.0530 
     20 H5          6.4120   -6.7480    2.1880 H       1     ****    0.0850 
     21 H6          5.3010   -7.3570    3.4150 H       1     ****    0.0430 
     22 H7          2.4390   -5.2680    2.2090 H       1     ****    0.0540 
     23 H8          2.8810   -6.4960    3.4030 H       1     ****    0.0490 
     24 H9          2.7970   -4.2480    4.4440 H       1     ****    0.0510 
     25 H10         3.8900   -3.6050    3.2170 H       1     ****    0.0500 
@<TRIPOS>BOND
     1  2 1 1
     2  3 2 1
     3  4 3 1
     4  5 4 1
     5  6 1 1
     6  6 5 1
     7  7 4 1
     8  8 7 2
     9  9 7 1
    10 10 9 1
    11 11 10 2
    12 12 11 1
    13 13 9 2
    14 13 12 1
    15 14 11 1
    16 15 10 1
    17 16 1 1
    18 17 1 1
    19 18 2 1
    20 19 2 1
    21 20 3 1
    22 21 3 1
    23 22 5 1
    24 23 5 1
    25 24 6 1
    26 25 6 1
@<TRIPOS>SUBSTRUCTURE
1     ****    1
@<TRIPOS>MOLECULE
ZINC00028146
17 17 1 0 0 
SMALL
USER_CHARGES


@<TRIPOS>ATOM
      1 C1          2.5600   -7.5070   -1.1360 C.ar    1     ****   -0.0720 
      2 C2          1.8500   -6.5250   -0.4410 C.ar    1     ****   -0.1160 
      3 C3          2.3590   -5.2300   -0.3650 C.ar    1     ****    0.0000 
      4 C4          3.5690   -4.9100   -0.9770 C.ar    1     ****   -0.1180 
      5 C5          4.2790   -5.8930   -1.6730 C.ar    1     ****   -0.0950 
      6 C6          3.7780   -7.1980   -1.7580 C.ar    1     ****   -0.1670 
      7 C7          4.5060   -8.2770   -2.4900 C.2     1     ****    0.5810 
      8 O1          4.0800   -9.4270   -2.4150 O.2     1     ****   -0.4970 
      9 C8          5.7400   -7.8900   -3.2730 C.3     1     ****   -0.1290 
     10 BR1         6.3780   -9.4100   -4.3040 Br      1     ****   -0.1180 
     11 BR2         1.4010   -3.8980    0.5750 Br      1     ****   -0.0730 
     12 H1          2.1440   -8.5110   -1.1830 H       1     ****    0.1640 
     13 H2          0.9080   -6.7860    0.0330 H       1     ****    0.1550 
     14 H3          3.9740   -3.9030   -0.9220 H       1     ****    0.1520 
     15 H4          5.2210   -5.6100   -2.1320 H       1     ****    0.1390 
     16 H5          5.5160   -7.1080   -4.0010 H       1     ****    0.0960 
     17 H6          6.5540   -7.6060   -2.6030 H       1     ****    0.0980 
@<TRIPOS>BOND
     1  2 1 ar
     2  3 2 ar
     3  4 3 ar
     4  5 4 ar
     5  6 1 ar
     6  6 5 ar
     7  7 6 1
     8  8 7 2
     9  9 7 1
    10 10 9 1
    11 11 3 1
    12 12 1 1
    13 13 2 1
    14 14 4 1
    15 15 5 1
    16 16 9 1
    17 17 9 1
@<TRIPOS>SUBSTRUCTURE
1     ****    1
@<TRIPOS>MOLECULE
ZINC00000036
18 18 1 0 0 
SMALL
USER_CHARGES


@<TRIPOS>ATOM
      1 C1          2.7130    0.2760    4.7880 C.ar    1     ****   -0.1630 
      2 C2          3.7860   -0.3190    4.1270 C.ar    1     ****   -0.1440 
      3 C3          4.2410   -1.5780    4.5230 C.ar    1     ****   -0.1280 
      4 C4          3.6260   -2.2600    5.5830 C.ar    1     ****   -0.0340 
      5 C5          2.5490   -1.6460    6.2430 C.ar    1     ****   -0.1140 
      6 C6          2.0950   -0.3870    5.8470 C.ar    1     ****   -0.1430 
      7 C7          4.1330   -3.6190    6.0110 C.3     1     ****    0.0400 
      8 C8          4.8210   -3.5210    7.3820 C.2     1     ****    0.9050 
      9 O1          4.2780   -4.1740    8.3190 O.co2   1     ****   -0.8420 
     10 O2          3.0280   -4.5150    6.0910 O.3     1     ****   -0.6360 
     11 H1          3.2370   -5.1690    6.7820 H       1     ****    0.4230 
     12 H2          2.3600    1.2560    4.4810 H       1     ****    0.1050 
     13 H3          4.2710    0.1990    3.3040 H       1     ****    0.1070 
     14 H4          5.0830   -2.0230    3.9980 H       1     ****    0.1280 
     15 H5          2.0580   -2.1490    7.0730 H       1     ****    0.1440 
     16 H6          1.2610    0.0760    6.3650 H       1     ****    0.1090 
     17 H7          4.8530   -3.9890    5.2640 H       1     ****    0.0520 
     18 O3          5.8760   -2.8230    7.4040 O.co2   1     ****   -0.8070 
@<TRIPOS>BOND
     1  2 1 ar
     2  3 2 ar
     3  4 3 ar
     4  5 4 ar
     5  6 1 ar
     6  6 5 ar
     7  7 4 1
     8  8 7 1
     9  9 8 1
    10 10 7 1
    11 11 10 1
    12 12 1 1
    13 13 2 1
    14 14 3 1
    15 15 5 1
    16 16 6 1
    17 17 7 1
    18 18 8 2
@<TRIPOS>SUBSTRUCTURE
1     ****    1
@<TRIPOS>MOLECULE
ZINC00000210
47 50 1 0 0 
SMALL
USER_CHARGES


@<TRIPOS>ATOM
      1 C1          5.6350   -9.8070   -0.8110 C.ar    1     ****   -0.1050 
      2 C2          4.3620  -10.2560   -0.4710 C.ar    1     ****   -0.1230 
      3 C3          3.6670   -9.6600    0.5830 C.ar    1     ****   -0.0900 
      4 C4          4.2320   -8.5970    1.3110 C.ar    1     ****   -0.1180 
      5 C5          5.5230   -8.1680    0.9610 C.ar    1     ****   -0.1130 
      6 C6          6.2170   -8.7650   -0.0950 C.ar    1     ****   -0.1320 
      7 C7          3.4760   -7.9630    2.4780 C.3     1     ****    0.4710 
      8 O1          2.0570   -7.9440    2.1770 O.3     1     ****   -0.4140 
      9 C8          1.7460   -6.5920    1.8350 C.3     1     ****    0.1260 
     10 C9          2.7200   -5.8250    2.6900 C.3     1     ****    0.0910 
     11 O2          3.9090   -6.5900    2.6480 O.3     1     ****   -0.4610 
     12 C10         2.9770   -4.3750    2.2360 C.3     1     ****    0.1350 
     13 C11         3.6440   -4.2770    0.8500 C.3     1     ****   -0.1040 
     14 C12         3.9990   -2.8320    0.4990 C.3     1     ****   -0.0990 
     15 C13         4.8480   -2.1870    1.5890 C.3     1     ****   -0.1040 
     16 C14         4.1810   -2.2940    2.9500 C.3     1     ****    0.1100 
     17 C15         3.7170   -8.7280    3.7770 C.ar    1     ****   -0.1410 
     18 C16         4.8450   -8.4560    4.5720 C.ar    1     ****   -0.1060 
     19 C17         5.0810   -9.1680    5.7500 C.ar    1     ****   -0.1320 
     20 C18         4.2010  -10.1690    6.1500 C.ar    1     ****   -0.1040 
     21 C19         3.0860  -10.4630    5.3690 C.ar    1     ****   -0.1280 
     22 C20         2.8480   -9.7520    4.1910 C.ar    1     ****   -0.0950 
     23 H1          6.1750  -10.2720   -1.6310 H       1     ****    0.1460 
     24 H2          3.9090  -11.0740   -1.0250 H       1     ****    0.1490 
     25 H3          2.6780  -10.0360    0.8330 H       1     ****    0.1510 
     26 H4          6.0080   -7.3630    1.5080 H       1     ****    0.1230 
     27 H5          7.2130   -8.4180   -0.3540 H       1     ****    0.1390 
     28 H6          1.9150   -6.4780    0.7610 H       1     ****    0.0670 
     29 H7          0.7000   -6.3710    2.0610 H       1     ****    0.0860 
     30 H8          2.3150   -5.7800    3.7150 H       1     ****    0.0710 
     31 H9          2.0090   -3.8460    2.1860 H       1     ****    0.1060 
     32 H10         4.5580   -4.8820    0.8220 H       1     ****    0.0960 
     33 H11         2.9780   -4.6700    0.0750 H       1     ****    0.1020 
     34 H12         4.5370   -2.8050   -0.4550 H       1     ****    0.0950 
     35 H13         3.0770   -2.2540    0.3630 H       1     ****    0.0630 
     36 H14         5.8310   -2.6740    1.6210 H       1     ****    0.0750 
     37 H15         5.0230   -1.1330    1.3460 H       1     ****    0.1030 
     38 H16         4.8400   -1.9430    3.7490 H       1     ****    0.1050 
     39 H17         3.2360   -1.7430    2.9920 H       1     ****    0.1020 
     40 H18         5.5550   -7.6860    4.2790 H       1     ****    0.1290 
     41 H19         5.9560   -8.9420    6.3540 H       1     ****    0.1410 
     42 H20         4.3860  -10.7240    7.0650 H       1     ****    0.1470 
     43 H21         2.4010  -11.2490    5.6750 H       1     ****    0.1460 
     44 H22         1.9740  -10.0110    3.5970 H       1     ****    0.1500 
     45 N1          3.8730   -3.7270    3.2360 N.4     1     ****   -0.7640 
     46 H23         3.4460   -3.7870    4.1700 H       1     ****    0.4490 
     47 H24         4.7520   -4.2610    3.3010 H       1     ****    0.4630 
@<TRIPOS>BOND
     1  2 1 ar
     2  3 2 ar
     3  4 3 ar
     4  5 4 ar
     5  6 1 ar
     6  6 5 ar
     7  7 4 1
     8  8 7 1
     9  9 8 1
    10 10 9 1
    11 11 7 1
    12 11 10 1
    13 12 10 1
    14 13 12 1
    15 14 13 1
    16 15 14 1
    17 16 15 1
    18 17 7 1
    19 18 17 ar
    20 19 18 ar
    21 20 19 ar
    22 21 20 ar
    23 22 17 ar
    24 22 21 ar
    25 23 1 1
    26 24 2 1
    27 25 3 1
    28 26 5 1
    29 27 6 1
    30 28 9 1
    31 29 9 1
    32 30 10 1
    33 31 12 1
    34 32 13 1
    35 33 13 1
    36 34 14 1
    37 35 14 1
    38 36 15 1
    39 37 15 1
    40 38 16 1
    41 39 16 1
    42 40 18 1
    43 41 19 1
    44 42 20 1
    45 43 21 1
    46 44 22 1
    47 45 12 1
    48 45 16 1
    49 46 45 1
    50 47 45 1
@<TRIPOS>SUBSTRUCTURE
1     ****    1
@<TRIPOS>MOLECULE
ZINC00000312
35 37 1 0 0 
SMALL
USER_CHARGES


@<TRIPOS>ATOM
      1 C1         -4.4000    0.4980   -3.3680 C.3     1     ****    0.0810 
      2 C2         -6.1800    1.3540   -1.8940 C.3     1     ****    0.0820 
      3 C3         -3.9650    0.6740   -0.8670 C.3     1     ****    0.1300 
      4 C4         -2.4270    0.6280   -1.1260 C.3     1     ****   -0.0950 
      5 C5         -1.6430    0.0430    0.0650 C.3     1     ****   -0.0200 
      6 C6         -2.1490    0.6210    1.3310 C.2     1     ****   -0.0430 
      7 C7         -3.3400    1.2920    1.5020 C.2     1     ****   -0.1880 
      8 C8         -3.4310    1.6540    2.8750 C.ar    1     ****   -0.0280 
      9 C9         -4.3810    2.3450    3.6550 C.ar    1     ****   -0.1560 
     10 C10        -4.1340    2.5220    5.0200 C.ar    1     ****    0.1540 
     11 C11        -2.9810    2.0390    5.6260 C.ar    1     ****   -0.1790 
     12 C12        -2.0360    1.3570    4.8640 C.ar    1     ****    0.1590 
     13 C13        -2.2730    1.1750    3.4990 C.ar    1     ****   -0.0960 
     14 N1         -1.5120    0.5490    2.5370 N.pl3   1     ****   -0.1450 
     15 F1         -0.9210    0.8890    5.4390 F       1     ****   -0.1230 
     16 F2         -5.0370    3.1780    5.7640 F       1     ****   -0.1240 
     17 C14        -4.2780    1.5580    0.3740 C.3     1     ****   -0.0050 
     18 H1         -0.6190    0.1050    2.7050 H       1     ****    0.3240 
     19 H2         -5.0420    0.9010   -4.1560 H       1     ****    0.1040 
     20 H3         -3.3600    0.6710   -3.6510 H       1     ****    0.1040 
     21 H4         -4.6050   -0.5630   -3.2020 H       1     ****    0.1060 
     22 H5         -6.6240    1.7170   -2.8260 H       1     ****    0.1020 
     23 H6         -6.5660    0.3640   -1.6370 H       1     ****    0.1070 
     24 H7         -6.3830    2.0820   -1.1060 H       1     ****    0.1090 
     25 H8         -4.2980   -0.3650   -0.6940 H       1     ****    0.1090 
     26 H9         -2.1880    0.0140   -2.0000 H       1     ****    0.0630 
     27 H10        -2.0670    1.6440   -1.3360 H       1     ****    0.0760 
     28 H11        -1.7760   -1.0460    0.0890 H       1     ****    0.0760 
     29 H12        -0.5740    0.2450   -0.0610 H       1     ****    0.0880 
     30 H13        -5.2930    2.7350    3.2120 H       1     ****    0.1520 
     31 H14        -2.8170    2.1920    6.6880 H       1     ****    0.1810 
     32 H15        -4.2050    2.6210    0.1110 H       1     ****    0.0610 
     33 H16        -5.3020    1.3680    0.7170 H       1     ****    0.0700 
     34 N2         -4.6830    1.2490   -2.0870 N.4     1     ****   -0.6830 
     35 H17        -4.3360    2.2080   -2.2270 H       1     ****    0.4480 
@<TRIPOS>BOND
     1  4 3 1
     2  5 4 1
     3  6 5 1
     4  7 6 ar
     5  8 7 1
     6  9 8 ar
     7 10 9 ar
     8 11 10 ar
     9 12 11 ar
    10 13 8 ar
    11 13 12 ar
    12 14 6 1
    13 14 13 1
    14 15 12 1
    15 16 10 1
    16 17 3 1
    17 17 7 1
    18 18 14 1
    19 19 1 1
    20 20 1 1
    21 21 1 1
    22 22 2 1
    23 23 2 1
    24 24 2 1
    25 25 3 1
    26 26 4 1
    27 27 4 1
    28 28 5 1
    29 29 5 1
    30 30 9 1
    31 31 11 1
    32 32 17 1
    33 33 17 1
    34 34 1 1
    35 34 2 1
    36 34 3 1
    37 35 34 1
@<TRIPOS>SUBSTRUCTURE
1     ****    1
@<TRIPOS>MOLECULE
ZINC00000409
33 34 1 0 0 
SMALL
USER_CHARGES


@<TRIPOS>ATOM
      1 C1          3.6380   -3.3930    3.3530 C.3     1     ****    0.0800 
      2 C2          3.4920   -5.1320    1.4270 C.3     1     ****    0.1200 
      3 C3          2.0710   -5.6320    1.8210 C.3     1     ****   -0.1090 
      4 C4          2.0540   -6.7970    2.8210 C.3     1     ****   -0.1000 
      5 C5          2.8510   -7.9870    2.3000 C.3     1     ****   -0.0880 
      6 C6          4.2630   -7.5910    1.9080 C.3     1     ****   -0.1850 
      7 C7          4.2260   -6.4190    0.9450 C.2     1     ****    0.5360 
      8 O1          4.7630   -6.5220   -0.1580 O.2     1     ****   -0.4260 
      9 C8          3.5780   -4.0210    0.3360 C.ar    1     ****   -0.1570 
     10 C9          4.8950   -3.6160   -0.0230 C.ar    1     ****   -0.1130 
     11 C10         5.1550   -2.6270   -0.9740 C.ar    1     ****   -0.1110 
     12 C11         4.1020   -1.9920   -1.6070 C.ar    1     ****   -0.0720 
     13 C12         2.7980   -2.3490   -1.2820 C.ar    1     ****   -0.1200 
     14 C13         2.5270   -3.3460   -0.3220 C.ar    1     ****    0.0520 
     15 CL1         0.8400   -3.6050   -0.0560 Cl      1     ****   -0.0620 
     16 H1          4.2760   -3.1750    4.2130 H       1     ****    0.1020 
     17 H2          3.6800   -2.5680    2.6400 H       1     ****    0.1190 
     18 H3          2.6180   -3.5870    3.6890 H       1     ****    0.1060 
     19 H4          1.4690   -4.8240    2.2490 H       1     ****    0.0820 
     20 H5          1.5550   -5.9940    0.9220 H       1     ****    0.1140 
     21 H6          2.4420   -6.4790    3.7950 H       1     ****    0.0290 
     22 H7          1.0160   -7.1080    2.9910 H       1     ****    0.0930 
     23 H8          2.8820   -8.7750    3.0600 H       1     ****    0.0830 
     24 H9          2.3350   -8.4060    1.4270 H       1     ****    0.0800 
     25 H10         4.8650   -7.3220    2.7810 H       1     ****    0.0550 
     26 H11         4.7610   -8.4360    1.4190 H       1     ****    0.1140 
     27 H12         5.7610   -4.0890    0.4380 H       1     ****    0.1330 
     28 H13         6.1800   -2.3600   -1.2160 H       1     ****    0.1640 
     29 H14         4.2900   -1.2210   -2.3480 H       1     ****    0.1680 
     30 H15         1.9830   -1.8330   -1.7870 H       1     ****    0.1740 
     31 N1          4.1810   -4.6280    2.7110 N.4     1     ****   -0.7620 
     32 H16         4.1840   -5.3680    3.4230 H       1     ****    0.4490 
     33 H17         5.1770   -4.4650    2.5100 H       1     ****    0.4500 
@<TRIPOS>BOND
     1  3 2 1
     2  4 3 1
     3  5 4 1
     4  6 5 1
     5  7 2 1
     6  7 6 1
     7  8 7 2
     8  9 2 1
     9 10 9 ar
    10 11 10 ar
    11 12 11 ar
    12 13 12 ar
    13 14 9 ar
    14 14 13 ar
    15 15 14 1
    16 16 1 1
    17 17 1 1
    18 18 1 1
    19 19 3 1
    20 20 3 1
    21 21 4 1
    22 22 4 1
    23 23 5 1
    24 24 5 1
    25 25 6 1
    26 26 6 1
    27 27 10 1
    28 28 11 1
    29 29 12 1
    30 30 13 1
    31 31 1 1
    32 31 2 1
    33 32 31 1
    34 33 31 1
@<TRIPOS>SUBSTRUCTURE
1     ****    1
@<TRIPOS>MOLECULE
ZINC00000427
38 40 1 0 0 
SMALL
USER_CHARGES


@<TRIPOS>ATOM
      1 C1          6.3890    0.3450    0.5760 C.3     1     ****   -0.0960 
      2 C2          4.8710    0.3360    0.4280 C.3     1     ****    0.1430 
      3 C3          4.2770    1.6790    0.8420 C.3     1     ****   -0.1170 
      4 C4          2.7290    1.6350    0.8490 C.3     1     ****   -0.0120 
      5 C5          2.1890    0.1950    0.5860 C.3     1     ****   -0.0900 
      6 C6          2.9880   -0.8030    1.4110 C.2     1     ****    0.7140 
      7 O1          2.4970   -1.6890    2.1010 O.2     1     ****   -0.5620 
      8 O2          4.3400   -0.6860    1.2810 O.3     1     ****   -0.4150 
      9 C7          0.7000    0.0900    0.9050 C.ar    1     ****   -0.0790 
     10 C8          0.1880    0.3770    2.1810 C.ar    1     ****   -0.1060 
     11 C9         -1.1820    0.2840    2.4360 C.ar    1     ****   -0.1280 
     12 C10        -2.0580   -0.0970    1.4230 C.ar    1     ****   -0.1210 
     13 C11        -1.5650   -0.3880    0.1530 C.ar    1     ****   -0.1290 
     14 C12        -0.1960   -0.2970   -0.1050 C.ar    1     ****   -0.1110 
     15 C13         2.1640    2.5970   -0.1870 C.ar    1     ****   -0.0790 
     16 C14         1.2550    3.5860    0.2230 C.ar    1     ****   -0.1070 
     17 C15         0.7010    4.4750   -0.7000 C.ar    1     ****   -0.1210 
     18 C16         1.0530    4.3830   -2.0450 C.ar    1     ****    0.0190 
     19 C17         1.9520    3.4090   -2.4730 C.ar    1     ****   -0.1220 
     20 C18         2.5040    2.5200   -1.5470 C.ar    1     ****   -0.1220 
     21 CL1         0.3700    5.4770   -3.1850 Cl      1     ****   -0.0910 
     22 H1          6.8040   -0.6280    0.2910 H       1     ****    0.0590 
     23 H2          6.8460    1.1160   -0.0520 H       1     ****    0.0450 
     24 H3          6.6820    0.5180    1.6170 H       1     ****    0.0540 
     25 H4          4.6540    0.1170   -0.6290 H       1     ****    0.0450 
     26 H5          4.6000    1.8970    1.8700 H       1     ****    0.0650 
     27 H6          4.6780    2.4910    0.2230 H       1     ****    0.0690 
     28 H7          2.4540    1.9600    1.8670 H       1     ****    0.0710 
     29 H8          2.3230   -0.0320   -0.4870 H       1     ****    0.0850 
     30 H9          0.8510    0.6690    2.9910 H       1     ****    0.1350 
     31 H10        -1.5640    0.5080    3.4280 H       1     ****    0.1340 
     32 H11        -3.1230   -0.1680    1.6230 H       1     ****    0.1330 
     33 H12        -2.2470   -0.6860   -0.6380 H       1     ****    0.1340 
     34 H13         0.1650   -0.5270   -1.1050 H       1     ****    0.1310 
     35 H14         0.9660    3.6680    1.2680 H       1     ****    0.1420 
     36 H15        -0.0020    5.2300   -0.3580 H       1     ****    0.1500 
     37 H16         2.2310    3.3290   -3.5200 H       1     ****    0.1490 
     38 H17         3.2020    1.7660   -1.9010 H       1     ****    0.1340 
@<TRIPOS>BOND
     1  2 1 1
     2  3 2 1
     3  4 3 1
     4  5 4 1
     5  6 5 1
     6  7 6 2
     7  8 2 1
     8  8 6 1
     9  9 5 1
    10 10 9 ar
    11 11 10 ar
    12 12 11 ar
    13 13 12 ar
    14 14 9 ar
    15 14 13 ar
    16 15 4 1
    17 16 15 ar
    18 17 16 ar
    19 18 17 ar
    20 19 18 ar
    21 20 15 ar
    22 20 19 ar
    23 21 18 1
    24 22 1 1
    25 23 1 1
    26 24 1 1
    27 25 2 1
    28 26 3 1
    29 27 3 1
    30 28 4 1
    31 29 5 1
    32 30 10 1
    33 31 11 1
    34 32 12 1
    35 33 13 1
    36 34 14 1
    37 35 16 1
    38 36 17 1
    39 37 19 1
    40 38 20 1
@<TRIPOS>SUBSTRUCTURE
1     ****    1
@<TRIPOS>MOLECULE
ZINC00000546
27 28 1 0 0 
SMALL
USER_CHARGES


@<TRIPOS>ATOM
      1 C1          4.8300   -0.4720    1.8350 C.3     1     ****   -0.1070 
      2 C2          4.3290   -0.3480    0.3990 C.3     1     ****   -0.0580 
      3 C3          4.6500   -1.5430   -0.5400 C.3     1     ****    0.0670 
      4 C4          3.7150   -2.7030   -0.1310 C.2     1     ****    0.6990 
      5 O1          3.7040   -3.3010    0.9340 O.2     1     ****   -0.5790 
      6 N1          2.8790   -2.9380   -1.2000 N.am    1     ****   -0.6140 
      7 C5          3.1390   -2.0940   -2.2560 C.2     1     ****    0.7810 
      8 O2          2.5580   -2.0750   -3.3320 O.2     1     ****   -0.6030 
      9 N2          4.1920   -1.2630   -1.8780 N.am    1     ****   -0.5150 
     10 C6          6.1320   -1.9150   -0.5570 C.ar    1     ****   -0.1140 
     11 C7          7.0920   -0.9230   -0.8410 C.ar    1     ****   -0.1200 
     12 C8          8.4560   -1.2230   -0.8880 C.ar    1     ****   -0.1290 
     13 C9          8.8900   -2.5250   -0.6640 C.ar    1     ****   -0.1160 
     14 C10         7.9600   -3.5260   -0.4000 C.ar    1     ****   -0.1270 
     15 C11         6.5950   -3.2260   -0.3530 C.ar    1     ****   -0.1060 
     16 H1          2.1570   -3.6480   -1.2090 H       1     ****    0.3580 
     17 H2          4.5840   -0.5540   -2.4880 H       1     ****    0.3200 
     18 H3          4.5520    0.4240    2.4000 H       1     ****    0.0410 
     19 H4          4.3890   -1.3300    2.3480 H       1     ****    0.0630 
     20 H5          5.9190   -0.5630    1.8820 H       1     ****    0.0440 
     21 H6          3.2420   -0.1910    0.4320 H       1     ****    0.0590 
     22 H7          4.7400    0.5780   -0.0250 H       1     ****    0.0550 
     23 H8          6.7860    0.1020   -1.0340 H       1     ****    0.1370 
     24 H9          9.1770   -0.4400   -1.1040 H       1     ****    0.1380 
     25 H10         9.9500   -2.7610   -0.7010 H       1     ****    0.1370 
     26 H11         8.2950   -4.5460   -0.2340 H       1     ****    0.1400 
     27 H12         5.9100   -4.0460   -0.1580 H       1     ****    0.1500 
@<TRIPOS>BOND
     1  2 1 1
     2  3 2 1
     3  4 3 1
     4  5 4 2
     5  6 4 1
     6  7 6 1
     7  8 7 2
     8  9 3 1
     9  9 7 1
    10 10 3 1
    11 11 10 ar
    12 12 11 ar
    13 13 12 ar
    14 14 13 ar
    15 15 10 ar
    16 15 14 ar
    17 16 6 1
    18 17 9 1
    19 18 1 1
    20 19 1 1
    21 20 1 1
    22 21 2 1
    23 22 2 1
    24 23 11 1
    25 24 12 1
    26 25 13 1
    27 26 14 1
    28 27 15 1
@<TRIPOS>SUBSTRUCTURE
1     ****    1
@<TRIPOS>MOLECULE
ZINC00000549
37 39 1 0 0 
SMALL
USER_CHARGES


@<TRIPOS>ATOM
      1 C1          4.4390   -8.7110    2.8710 C.3     1     ****    0.0850 
      2 C2          4.4980   -6.6590    1.4780 C.3     1     ****    0.1840 
      3 C3          4.4230   -6.0350    0.1060 C.ar    1     ****   -0.2110 
      4 C4          4.0290   -6.8180   -1.0050 C.ar    1     ****   -0.0550 
      5 C5          4.0420   -6.2350   -2.2850 C.ar    1     ****   -0.1360 
      6 C6          4.3730   -4.8950   -2.4570 C.ar    1     ****   -0.0600 
      7 C7          4.7040   -4.1160   -1.3530 C.ar    1     ****   -0.1740 
      8 C8          4.7160   -4.6610   -0.0620 C.ar    1     ****    0.1770 
      9 N1          5.0950   -3.8490    1.0030 N.pl3   1     ****   -0.8270 
     10 C9          3.6880   -8.3010   -0.8580 C.3     1     ****    0.0230 
     11 C10         3.3930   -8.6620    0.6020 C.3     1     ****    0.1110 
     12 C11         2.4990   -8.7640   -1.7030 C.ar    1     ****   -0.1250 
     13 C12         1.2440   -8.1390   -1.6100 C.ar    1     ****   -0.1170 
     14 C13         0.1700   -8.5830   -2.3820 C.ar    1     ****   -0.1200 
     15 C14         0.3330   -9.6580   -3.2530 C.ar    1     ****   -0.1000 
     16 C15         1.5700  -10.2910   -3.3520 C.ar    1     ****   -0.1190 
     17 C16         2.6470   -9.8490   -2.5810 C.ar    1     ****   -0.1160 
     18 H1          5.2440   -2.8600    0.8430 H       1     ****    0.4160 
     19 H2          4.9970   -4.1570    1.9590 H       1     ****    0.3930 
     20 H3          4.5070   -9.8000    2.8110 H       1     ****    0.1030 
     21 H4          5.2870   -8.3140    3.4340 H       1     ****    0.1030 
     22 H5          3.4900   -8.4030    3.3180 H       1     ****    0.1040 
     23 H6          3.6340   -6.3400    2.0740 H       1     ****    0.0910 
     24 H7          5.4260   -6.3640    1.9810 H       1     ****    0.1060 
     25 H8          3.7960   -6.8220   -3.1660 H       1     ****    0.1610 
     26 H9          4.3750   -4.4580   -3.4510 H       1     ****    0.1590 
     27 H10         4.9590   -3.0690   -1.5080 H       1     ****    0.1560 
     28 H11         4.5760   -8.8470   -1.2280 H       1     ****    0.0800 
     29 H12         3.3420   -9.7510    0.7240 H       1     ****    0.1030 
     30 H13         2.4620   -8.2260    0.9850 H       1     ****    0.1100 
     31 H14         1.0930   -7.2970   -0.9380 H       1     ****    0.1330 
     32 H15        -0.7950   -8.0890   -2.3040 H       1     ****    0.1490 
     33 H16        -0.5040  -10.0030   -3.8540 H       1     ****    0.1530 
     34 H17         1.6970  -11.1300   -4.0300 H       1     ****    0.1520 
     35 H18         3.6030  -10.3590   -2.6740 H       1     ****    0.1360 
     36 N2          4.5150   -8.1650    1.4670 N.4     1     ****   -0.6810 
     37 H19         5.4110   -8.5250    1.0950 H       1     ****    0.4530 
@<TRIPOS>BOND
     1  3 2 1
     2  4 3 ar
     3  5 4 ar
     4  6 5 ar
     5  7 6 ar
     6  8 3 ar
     7  8 7 ar
     8  9 8 1
     9 10 4 1
    10 11 10 1
    11 12 10 1
    12 13 12 ar
    13 14 13 ar
    14 15 14 ar
    15 16 15 ar
    16 17 12 ar
    17 17 16 ar
    18 18 9 1
    19 19 9 1
    20 20 1 1
    21 21 1 1
    22 22 1 1
    23 23 2 1
    24 24 2 1
    25 25 5 1
    26 26 6 1
    27 27 7 1
    28 28 10 1
    29 29 11 1
    30 30 11 1
    31 31 13 1
    32 32 14 1
    33 33 15 1
    34 34 16 1
    35 35 17 1
    36 36 1 1
    37 36 2 1
    38 36 11 1
    39 37 36 1
@<TRIPOS>SUBSTRUCTURE
1     ****    1
@<TRIPOS>MOLECULE
ZINC00000583
44 48 1 0 0 
SMALL
USER_CHARGES


@<TRIPOS>ATOM
      1 C1         -0.6310   -5.8390   -2.6490 C.3     1     ****    0.0830 
      2 C2          0.7640   -5.9260   -4.7020 C.3     1     ****    0.1170 
      3 C3          1.5180   -5.1450   -5.7670 C.3     1     ****   -0.0880 
      4 C4          2.0070   -3.7370   -5.3140 C.3     1     ****   -0.0460 
      5 C5          1.0750   -2.7380   -5.8450 C.ar    1     ****   -0.1460 
      6 C6          0.0040   -2.1910   -5.1770 C.ar    1     ****   -0.1270 
      7 C7         -0.7060   -1.2480   -5.9040 C.ar    1     ****   -0.0920 
      8 C8         -0.2930   -0.9030   -7.2230 C.ar    1     ****   -0.1210 
      9 C9          0.8640   -1.4470   -7.8380 C.ar    1     ****    0.1660 
     10 C10         1.5750   -2.3600   -7.0980 C.ar    1     ****    0.0300 
     11 O1          2.8200   -2.9790   -7.3450 O.3     1     ****   -0.2760 
     12 C11         3.2470   -3.2590   -5.9930 C.3     1     ****    0.0430 
     13 C12         4.3130   -4.2910   -5.7510 C.2     1     ****    0.5720 
     14 O2          5.0000   -4.7880   -6.6340 O.2     1     ****   -0.4550 
     15 C13         4.5260   -4.5830   -4.2410 C.3     1     ****   -0.1910 
     16 C14         3.2370   -4.6120   -3.3440 C.3     1     ****   -0.0650 
     17 C15         2.1250   -3.6390   -3.8270 C.3     1     ****   -0.0710 
     18 C16         0.6910   -3.8150   -3.2590 C.3     1     ****    0.1500 
     19 C17        -0.1840   -2.5590   -3.7170 C.3     1     ****   -0.0430 
     20 O3          1.1460   -0.9630   -9.0790 O.3     1     ****   -0.3030 
     21 C18         2.2570   -1.5350   -9.7570 C.3     1     ****    0.1100 
     22 H1         -1.2010   -6.6740   -3.0640 H       1     ****    0.1030 
     23 H2          0.1890   -6.1970   -2.0200 H       1     ****    0.1030 
     24 H3         -1.2970   -5.1730   -2.0930 H       1     ****    0.1020 
     25 H4          1.4140   -6.5550   -4.0900 H       1     ****    0.0980 
     26 H5          0.0590   -6.6120   -5.1890 H       1     ****    0.0990 
     27 H6          2.3510   -5.7790   -6.0910 H       1     ****    0.1000 
     28 H7          0.8730   -5.0690   -6.6540 H       1     ****    0.0970 
     29 H8         -1.5670   -0.7470   -5.4690 H       1     ****    0.1520 
     30 H9         -0.8780   -0.1590   -7.7640 H       1     ****    0.1740 
     31 H10         3.6190   -2.3040   -5.5600 H       1     ****    0.0900 
     32 H11         5.0530   -5.5380   -4.1430 H       1     ****    0.0970 
     33 H12         5.1910   -3.7950   -3.8690 H       1     ****    0.0870 
     34 H13         2.9020   -5.6450   -3.2680 H       1     ****    0.0400 
     35 H14         3.5220   -4.3440   -2.3180 H       1     ****    0.0710 
     36 H15         2.5230   -2.6570   -3.5090 H       1     ****    0.1030 
     37 H16         0.7090   -3.8420   -2.1560 H       1     ****    0.1050 
     38 H17         0.1310   -1.6950   -3.1170 H       1     ****    0.1020 
     39 H18        -1.2450   -2.7390   -3.5090 H       1     ****    0.0680 
     40 H19         2.2960   -1.0960  -10.7590 H       1     ****    0.0860 
     41 H20         3.1950   -1.2870   -9.2520 H       1     ****    0.0510 
     42 H21         2.1380   -2.6170   -9.8760 H       1     ****    0.0530 
     43 N1         -0.0480   -5.0550   -3.8050 N.4     1     ****   -0.6840 
     44 H22        -0.8790   -4.7540   -4.3460 H       1     ****    0.4560 
@<TRIPOS>BOND
     1  3 2 1
     2  4 3 1
     3  5 4 1
     4  6 5 ar
     5  7 6 ar
     6  8 7 ar
     7  9 8 ar
     8 10 5 ar
     9 10 9 ar
    10 11 10 1
    11 12 4 1
    12 12 11 1
    13 13 12 1
    14 14 13 2
    15 15 13 1
    16 16 15 1
    17 17 4 1
    18 17 16 1
    19 18 17 1
    20 19 6 1
    21 19 18 1
    22 20 9 1
    23 21 20 1
    24 22 1 1
    25 23 1 1
    26 24 1 1
    27 25 2 1
    28 26 2 1
    29 27 3 1
    30 28 3 1
    31 29 7 1
    32 30 8 1
    33 31 12 1
    34 32 15 1
    35 33 15 1
    36 34 16 1
    37 35 16 1
    38 36 17 1
    39 37 18 1
    40 38 19 1
    41 39 19 1
    42 40 21 1
    43 41 21 1
    44 42 21 1
    45 43 1 1
    46 43 2 1
    47 43 18 1
    48 44 43 1
@<TRIPOS>SUBSTRUCTURE
1     ****    1
@<TRIPOS>MOLECULE
ZINC00000707
36 38 1 0 0 
SMALL
USER_CHARGES


@<TRIPOS>ATOM
      1 C1         -0.3620    2.5360    3.3730 C.3     1     ****   -0.0830 
      2 C2          0.0140    1.3970    2.4320 C.3     1     ****   -0.1480 
      3 C3          1.3570    0.7220    2.7040 C.3     1     ****   -0.0860 
      4 C4          2.4320    1.6510    3.2800 C.3     1     ****   -0.0740 
      5 C5          3.7860    0.9540    3.4170 C.3     1     ****   -0.0660 
      6 C6          4.0910   -0.1610    2.3790 C.3     1     ****    0.0070 
      7 C7          5.5740   -0.1590    2.1040 C.2     1     ****   -0.1010 
      8 C8          6.1390   -0.0600    0.9010 C.2     1     ****   -0.2380 
      9 C9          5.3050    0.0570   -0.3040 C.2     1     ****    0.5590 
     10 O1          5.8430    0.1150   -1.4060 O.2     1     ****   -0.5220 
     11 C10         3.8190    0.1180   -0.1390 C.2     1     ****   -0.1370 
     12 C11         3.2630    0.0710    1.0960 C.2     1     ****   -0.0840 
     13 C12         1.7540    0.2190    1.3290 C.3     1     ****    0.1750 
     14 O2          1.1900    1.1790    0.4270 O.3     1     ****   -0.4060 
     15 C13         0.1530    1.8570    1.0180 C.2     1     ****    0.7110 
     16 O3         -0.5450    2.6820    0.4490 O.2     1     ****   -0.5610 
     17 C14         3.0610    0.1850   -1.4390 C.3     1     ****   -0.0630 
     18 C15         3.7400   -1.5560    2.9490 C.3     1     ****   -0.0840 
     19 H1         -0.3310    2.2090    4.4170 H       1     ****    0.0450 
     20 H2          0.2970    3.4020    3.2550 H       1     ****    0.0500 
     21 H3         -1.3800    2.8820    3.1610 H       1     ****    0.0600 
     22 H4         -0.7740    0.6360    2.5420 H       1     ****    0.0850 
     23 H5          1.2210   -0.0680    3.4560 H       1     ****    0.0720 
     24 H6          2.5540    2.5280    2.6290 H       1     ****    0.0600 
     25 H7          2.1350    2.0350    4.2630 H       1     ****    0.0530 
     26 H8          4.5560    1.7380    3.3850 H       1     ****    0.0550 
     27 H9          3.8570    0.5310    4.4290 H       1     ****    0.0460 
     28 H10         6.2350   -0.2560    2.9650 H       1     ****    0.1330 
     29 H11         7.2150   -0.0730    0.7760 H       1     ****    0.1540 
     30 H12         1.3100   -0.7800    1.1810 H       1     ****    0.0690 
     31 H13         3.5500   -0.4150   -2.2140 H       1     ****    0.0660 
     32 H14         2.0500   -0.2240   -1.3560 H       1     ****    0.0510 
     33 H15         3.0020    1.2190   -1.7920 H       1     ****    0.0690 
     34 H16         3.9500   -2.3470    2.2180 H       1     ****    0.0510 
     35 H17         4.3330   -1.7770    3.8450 H       1     ****    0.0430 
     36 H18         2.6890   -1.6530    3.2330 H       1     ****    0.0380 
@<TRIPOS>BOND
     1  2 1 1
     2  3 2 1
     3  4 3 1
     4  5 4 1
     5  6 5 1
     6  7 6 1
     7  8 7 2
     8  9 8 1
     9 10 9 2
    10 11 9 1
    11 12 6 1
    12 12 11 2
    13 13 3 1
    14 13 12 1
    15 14 13 1
    16 15 2 1
    17 15 14 1
    18 16 15 2
    19 17 11 1
    20 18 6 1
    21 19 1 1
    22 20 1 1
    23 21 1 1
    24 22 2 1
    25 23 3 1
    26 24 4 1
    27 25 4 1
    28 26 5 1
    29 27 5 1
    30 28 7 1
    31 29 8 1
    32 30 13 1
    33 31 17 1
    34 32 17 1
    35 33 17 1
    36 34 18 1
    37 35 18 1
    38 36 18 1
@<TRIPOS>SUBSTRUCTURE
1     ****    1
@<TRIPOS>MOLECULE
ZINC00000749
33 35 1 0 0 
SMALL
USER_CHARGES


@<TRIPOS>ATOM
      1 C1         -0.6350   -2.7410   -4.2660 C.ar    1     ****   -0.0930 
      2 C2         -0.6640   -3.0010   -5.6330 C.ar    1     ****   -0.1320 
      3 C3          0.3380   -3.7770   -6.2130 C.ar    1     ****   -0.0640 
      4 C4          1.3740   -4.2940   -5.4230 C.ar    1     ****   -0.1310 
      5 C5          1.4210   -4.0350   -4.0500 C.ar    1     ****   -0.0450 
      6 C6          0.3990   -3.2530   -3.4810 C.ar    1     ****   -0.1310 
      7 C7          2.5450   -4.5380   -3.1590 C.3     1     ****   -0.1640 
      8 C8          3.4330   -5.5660   -3.8300 C.2     1     ****    0.7200 
      9 O1          4.2570   -6.2070   -3.1740 O.2     1     ****   -0.6030 
     10 N1          3.3200   -5.7230   -5.1960 N.am    1     ****   -0.5820 
     11 C9          2.4060   -5.1360   -6.0530 C.2     1     ****    0.7250 
     12 O2          2.4240   -5.3150   -7.2670 O.2     1     ****   -0.5960 
     13 C10         3.4120   -3.3550   -2.7160 C.2     1     ****    0.6820 
     14 O3          3.9910   -2.6550   -3.5430 O.2     1     ****   -0.5590 
     15 N2          3.4410   -3.2170   -1.3340 N.am    1     ****   -0.4600 
     16 C11         4.1230   -2.2310   -0.5830 C.ar    1     ****    0.0660 
     17 C12         4.8840   -1.2000   -1.1420 C.ar    1     ****   -0.1450 
     18 C13         5.5240   -0.2650   -0.3200 C.ar    1     ****   -0.0980 
     19 C14         5.4060   -0.3580    1.0640 C.ar    1     ****   -0.0080 
     20 C15         4.6510   -1.3770    1.6370 C.ar    1     ****   -0.0980 
     21 C16         4.0130   -2.3090    0.8140 C.ar    1     ****   -0.1730 
     22 CL1         6.1950    0.7940    2.0710 Cl      1     ****   -0.0920 
     23 H1          3.9810   -6.3630   -5.6260 H       1     ****    0.3470 
     24 H2          2.9250   -3.8980   -0.7820 H       1     ****    0.3210 
     25 H3         -1.4150   -2.1370   -3.8110 H       1     ****    0.1430 
     26 H4         -1.4670   -2.6030   -6.2460 H       1     ****    0.1460 
     27 H5          0.2950   -3.9750   -7.2810 H       1     ****    0.1660 
     28 H6          0.4060   -3.0320   -2.4160 H       1     ****    0.1410 
     29 H7          2.0320   -5.0110   -2.3050 H       1     ****    0.1030 
     30 H8          5.0050   -1.0840   -2.2130 H       1     ****    0.1790 
     31 H9          6.1110    0.5280   -0.7770 H       1     ****    0.1520 
     32 H10         4.5500   -1.4600    2.7160 H       1     ****    0.1490 
     33 H11         3.4270   -3.0980    1.2810 H       1     ****    0.1340 
@<TRIPOS>BOND
     1  2 1 ar
     2  3 2 ar
     3  4 3 ar
     4  5 4 ar
     5  6 1 ar
     6  6 5 ar
     7  7 5 1
     8  8 7 1
     9  9 8 2
    10 10 8 1
    11 11 4 1
    12 11 10 1
    13 12 11 2
    14 13 7 1
    15 14 13 2
    16 15 13 1
    17 16 15 1
    18 17 16 ar
    19 18 17 ar
    20 19 18 ar
    21 20 19 ar
    22 21 16 ar
    23 21 20 ar
    24 22 19 1
    25 23 10 1
    26 24 15 1
    27 25 1 1
    28 26 2 1
    29 27 3 1
    30 28 6 1
    31 29 7 1
    32 30 17 1
    33 31 18 1
    34 32 20 1
    35 33 21 1
@<TRIPOS>SUBSTRUCTURE
1     ****    1
@<TRIPOS>MOLECULE
ZINC00000887
18 18 1 0 0 
SMALL
USER_CHARGES


@<TRIPOS>ATOM
      1 C1          2.6760   -6.1290    0.8380 C.ar    1     ****   -0.0760 
      2 C2          1.5560   -5.3200    1.0330 C.ar    1     ****   -0.0860 
      3 C3          0.6480   -5.0960   -0.0140 C.ar    1     ****   -0.0940 
      4 C4          0.8520   -5.7120   -1.2580 C.ar    1     ****    0.0230 
      5 C5          1.9750   -6.5240   -1.4600 C.ar    1     ****   -0.0740 
      6 C6          2.8780   -6.7220   -0.4100 C.ar    1     ****   -0.1520 
      7 N1          4.0460   -7.5690   -0.6200 N.2     1     ****    0.3120 
      8 O1          4.5780   -8.0730    0.3790 O.2     1     ****   -0.1960 
      9 O2          4.4370   -7.7320   -1.7840 O.3     1     ****   -0.1990 
     10 CL1        -0.2640   -5.5630   -2.5690 Cl      1     ****   -0.0610 
     11 C7         -0.5040   -4.2190    0.2920 C.2     1     ****    0.6670 
     12 O3         -1.1490   -4.3850    1.3220 O.2     1     ****   -0.5890 
     13 N2         -0.7450   -3.2110   -0.6100 N.am    1     ****   -0.6590 
     14 H1         -1.5080   -2.5600   -0.4570 H       1     ****    0.3240 
     15 H2         -0.1890   -3.0770   -1.4470 H       1     ****    0.3160 
     16 H3          3.3680   -6.2740    1.6620 H       1     ****    0.1800 
     17 H4          1.4050   -4.8560    2.0050 H       1     ****    0.1750 
     18 H5          2.1240   -7.0050   -2.4240 H       1     ****    0.1880 
@<TRIPOS>BOND
     1  2 1 ar
     2  3 2 ar
     3  4 3 ar
     4  5 4 ar
     5  6 1 ar
     6  6 5 ar
     7  7 6 1
     8  8 7 2
     9  9 7 1
    10 10 4 1
    11 11 3 1
    12 12 11 2
    13 13 11 1
    14 14 13 1
    15 15 13 1
    16 16 1 1
    17 17 2 1
    18 18 5 1
@<TRIPOS>SUBSTRUCTURE
1     ****    1
@<TRIPOS>MOLECULE
ZINC00000888
37 39 1 0 0 
SMALL
USER_CHARGES


@<TRIPOS>ATOM
      1 C1         -6.3400    7.9750   -0.8720 C.3     1     ****   -0.0920 
      2 C2         -7.1040    7.3380    0.3040 C.3     1     ****   -0.0300 
      3 C3         -8.1420    8.3350    0.8230 C.3     1     ****   -0.0710 
      4 C4         -8.9820    7.7320    1.9410 C.3     1     ****   -0.0780 
      5 C5         -8.0950    7.2880    3.0990 C.3     1     ****   -0.0690 
      6 C6         -6.9320    6.3390    2.6940 C.3     1     ****   -0.0090 
      7 C7         -6.1950    6.9030    1.4660 C.2     1     ****   -0.0690 
      8 C8         -4.8480    6.9480    1.4230 C.2     1     ****   -0.1860 
      9 C9         -3.8990    6.4280    2.4820 C.3     1     ****   -0.0120 
     10 C10        -4.5770    5.7200    3.6250 C.3     1     ****    0.1440 
     11 C11        -5.9780    6.2500    3.9170 C.3     1     ****   -0.0770 
     12 O1         -4.6110    4.3360    3.2780 O.3     1     ****   -0.4100 
     13 C12        -3.6180    4.0540    2.3770 C.2     1     ****    0.7190 
     14 O2         -3.2930    2.9420    2.0010 O.2     1     ****   -0.5680 
     15 C13        -3.0410    5.3450    1.9330 C.2     1     ****   -0.1960 
     16 C14        -1.9190    5.4320    1.2160 C.2     1     ****   -0.1210 
     17 C15        -7.4970    4.9460    2.3410 C.3     1     ****   -0.0850 
     18 H1         -7.0400    8.2740   -1.6610 H       1     ****    0.0370 
     19 H2         -5.7900    8.8710   -0.5650 H       1     ****    0.0370 
     20 H3         -5.6380    7.2650   -1.3220 H       1     ****    0.0370 
     21 H4         -7.5970    6.4540   -0.1330 H       1     ****    0.0610 
     22 H5         -7.6500    9.2490    1.1840 H       1     ****    0.0450 
     23 H6         -8.8090    8.6390    0.0070 H       1     ****    0.0420 
     24 H7         -9.7040    8.4750    2.2990 H       1     ****    0.0420 
     25 H8         -9.5660    6.8870    1.5590 H       1     ****    0.0440 
     26 H9         -7.6860    8.1970    3.5620 H       1     ****    0.0410 
     27 H10        -8.7180    6.8110    3.8670 H       1     ****    0.0440 
     28 H11        -4.3470    7.3610    0.5520 H       1     ****    0.1290 
     29 H12        -3.3210    7.3080    2.7960 H       1     ****    0.0770 
     30 H13        -3.9940    5.8660    4.5500 H       1     ****    0.0600 
     31 H14        -5.8560    7.2500    4.3550 H       1     ****    0.0520 
     32 H15        -6.4450    5.6280    4.6920 H       1     ****    0.0680 
     33 H16        -1.3780    4.5480    0.8970 H       1     ****    0.1400 
     34 H17        -1.5160    6.3980    0.9310 H       1     ****    0.1250 
     35 H18        -7.9330    4.4660    3.2240 H       1     ****    0.0380 
     36 H19        -8.2850    4.9960    1.5830 H       1     ****    0.0360 
     37 H20        -6.7270    4.2780    1.9450 H       1     ****    0.0550 
@<TRIPOS>BOND
     1  2 1 1
     2  3 2 1
     3  4 3 1
     4  5 4 1
     5  6 5 1
     6  7 2 1
     7  7 6 1
     8  8 7 2
     9  9 8 1
    10 10 9 1
    11 11 6 1
    12 11 10 1
    13 12 10 1
    14 13 12 1
    15 14 13 2
    16 15 9 1
    17 15 13 1
    18 16 15 2
    19 17 6 1
    20 18 1 1
    21 19 1 1
    22 20 1 1
    23 21 2 1
    24 22 3 1
    25 23 3 1
    26 24 4 1
    27 25 4 1
    28 26 5 1
    29 27 5 1
    30 28 8 1
    31 29 9 1
    32 30 10 1
    33 31 11 1
    34 32 11 1
    35 33 16 1
    36 34 16 1
    37 35 17 1
    38 36 17 1
    39 37 17 1
@<TRIPOS>SUBSTRUCTURE
1     ****    1
@<TRIPOS>MOLECULE
ZINC00000907
23 24 1 0 0 
SMALL
USER_CHARGES


@<TRIPOS>ATOM
      1 C1          3.4650   -9.2570   -0.6310 C.ar    1     ****   -0.1570 
      2 C2          3.4790   -9.1040    0.7500 C.ar    1     ****   -0.1040 
      3 C3          3.1980   -7.8580    1.3170 C.ar    1     ****   -0.1840 
      4 C4          2.8990   -6.7380    0.5180 C.ar    1     ****    0.1680 
      5 C5          2.8920   -6.9160   -0.8710 C.ar    1     ****   -0.1500 
      6 C6          3.1720   -8.1640   -1.4410 C.ar    1     ****   -0.1070 
      7 N1          2.6280   -5.5170    1.1630 N.pl3   1     ****   -0.7270 
      8 C7          2.3000   -4.2310    0.7020 C.ar    1     ****    0.9410 
      9 N2          2.1870   -3.9580   -0.6070 N.ar    1     ****   -0.8120 
     10 C8          1.8710   -2.6930   -0.9040 C.ar    1     ****    0.7110 
     11 N3          1.6630   -1.7000   -0.0350 N.ar    1     ****   -0.8130 
     12 C9          1.7940   -2.0500    1.2520 C.ar    1     ****    0.9350 
     13 N4          2.1090   -3.2950    1.6560 N.ar    1     ****   -0.8580 
     14 N5          1.5950   -1.0810    2.2170 N.pl3   1     ****   -0.9590 
     15 H1          2.6720   -5.5490    2.1760 H       1     ****    0.4570 
     16 H2          1.3580   -0.1410    1.9370 H       1     ****    0.4520 
     17 H3          1.6890   -1.3230    3.1920 H       1     ****    0.4500 
     18 H4          3.6820  -10.2230   -1.0760 H       1     ****    0.1330 
     19 H5          3.7070   -9.9520    1.3900 H       1     ****    0.1320 
     20 H6          3.2160   -7.7670    2.4010 H       1     ****    0.1300 
     21 H7          2.6700   -6.1000   -1.5500 H       1     ****    0.1740 
     22 H8          3.1600   -8.2780   -2.5210 H       1     ****    0.1340 
     23 H9          1.7740   -2.4500   -1.9550 H       1     ****    0.0540 
@<TRIPOS>BOND
     1  2 1 ar
     2  3 2 ar
     3  4 3 ar
     4  5 4 ar
     5  6 1 ar
     6  6 5 ar
     7  7 4 1
     8  8 7 1
     9  9 8 ar
    10 10 9 ar
    11 11 10 ar
    12 12 11 ar
    13 13 8 ar
    14 13 12 ar
    15 14 12 1
    16 15 7 1
    17 16 14 1
    18 17 14 1
    19 18 1 1
    20 19 2 1
    21 20 3 1
    22 21 5 1
    23 22 6 1
    24 23 10 1
@<TRIPOS>SUBSTRUCTURE
1     ****    1
@<TRIPOS>MOLECULE
ZINC00000922
17 17 1 0 0 
SMALL
USER_CHARGES


@<TRIPOS>ATOM
      1 C1          5.1250   -7.7060   -2.6340 C.ar    1     ****   -0.2300 
      2 C2          3.9820   -6.9400   -2.8870 C.ar    1     ****   -0.0650 
      3 C3          3.1840   -6.4670   -1.8350 C.ar    1     ****   -0.1520 
      4 C4          3.5550   -6.7980   -0.5260 C.ar    1     ****    0.1630 
      5 C5          4.7000   -7.5640   -0.2730 C.ar    1     ****   -0.2900 
      6 C6          5.5040   -8.0140   -1.3250 C.ar    1     ****    0.1060 
      7 N1          6.6210   -8.7990   -1.0780 N.pl3   1     ****   -0.8000 
      8 O1          2.7770   -6.3940    0.5250 O.3     1     ****   -0.4590 
      9 C7          1.9700   -5.6370   -2.1490 C.2     1     ****    0.9210 
     10 O2          1.2900   -5.9850   -3.1650 O.co2   1     ****   -0.8400 
     11 H1          6.9240   -8.9680   -0.1290 H       1     ****    0.3530 
     12 H2          7.2290   -9.0700   -1.8390 H       1     ****    0.3560 
     13 H3          3.1840   -6.6940    1.3550 H       1     ****    0.3830 
     14 H4          5.7190   -8.0570   -3.4750 H       1     ****    0.1090 
     15 H5          3.7240   -6.7100   -3.9180 H       1     ****    0.1480 
     16 H6          4.9670   -7.8170    0.7510 H       1     ****    0.1080 
     17 O3          1.7270   -4.6440   -1.3940 O.co2   1     ****   -0.8120 
@<TRIPOS>BOND
     1  2 1 ar
     2  3 2 ar
     3  4 3 ar
     4  5 4 ar
     5  6 1 ar
     6  6 5 ar
     7  7 6 1
     8  8 4 1
     9  9 3 1
    10 10 9 1
    11 11 7 1
    12 12 7 1
    13 13 8 1
    14 14 1 1
    15 15 2 1
    16 16 5 1
    17 17 9 2
@<TRIPOS>SUBSTRUCTURE
1     ****    1
@<TRIPOS>MOLECULE
ZINC00000923
22 23 1 0 0 
SMALL
USER_CHARGES


@<TRIPOS>ATOM
      1 C1          4.0850   -8.3990   -1.2230 C.ar    1     ****   -0.1310 
      2 C2          3.6980   -7.4310   -2.1470 C.ar    1     ****   -0.1320 
      3 C3          2.7350   -6.4800   -1.8040 C.ar    1     ****   -0.1210 
      4 C4          2.1470   -6.4890   -0.5300 C.ar    1     ****    0.0050 
      5 C5          2.5470   -7.4660    0.3930 C.ar    1     ****   -0.1260 
      6 C6          3.5110   -8.4160    0.0470 C.ar    1     ****   -0.1300 
      7 C7          1.1440   -5.4830   -0.1770 C.2     1     ****   -0.2480 
      8 C8          1.1970   -4.1010   -0.1940 C.2     1     ****    0.5990 
      9 N1          0.0420   -3.4480    0.1820 N.2     1     ****   -0.7240 
     10 C9         -0.8950   -4.3190    0.4870 C.2     1     ****    0.6230 
     11 S1         -0.4250   -5.9690    0.3330 S.2     1     ****   -0.1080 
     12 N2         -2.1390   -4.0030    0.8930 N.pl3   1     ****   -0.8900 
     13 N3          2.2770   -3.3730   -0.5330 N.pl3   1     ****   -0.8970 
     14 H1         -2.4350   -3.0370    0.9890 H       1     ****    0.4030 
     15 H2         -2.8280   -4.7120    1.1170 H       1     ****    0.3940 
     16 H3          3.1670   -3.7840   -0.7990 H       1     ****    0.4010 
     17 H4          2.2560   -2.3580   -0.5220 H       1     ****    0.4030 
     18 H5          4.8340   -9.1380   -1.4910 H       1     ****    0.1310 
     19 H6          4.1440   -7.4170   -3.1380 H       1     ****    0.1320 
     20 H7          2.4430   -5.7380   -2.5440 H       1     ****    0.1460 
     21 H8          2.1210   -7.4950    1.3930 H       1     ****    0.1360 
     22 H9          3.8140   -9.1680    0.7690 H       1     ****    0.1320 
@<TRIPOS>BOND
     1  2 1 ar
     2  3 2 ar
     3  4 3 ar
     4  5 4 ar
     5  6 1 ar
     6  6 5 ar
     7  7 4 1
     8  8 7 2
     9  9 8 1
    10 10 9 2
    11 11 7 1
    12 11 10 1
    13 12 10 1
    14 13 8 1
    15 14 12 1
    16 15 12 1
    17 16 13 1
    18 17 13 1
    19 18 1 1
    20 19 2 1
    21 20 3 1
    22 21 5 1
    23 22 6 1
@<TRIPOS>SUBSTRUCTURE
1     ****    1
@<TRIPOS>MOLECULE
ZINC00000948
51 54 1 0 0 
SMALL
USER_CHARGES


@<TRIPOS>ATOM
      1 C1          2.8270    7.5430    5.6690 C.3     1     ****   -0.0860 
      2 C2          1.5140    8.3470    5.8570 C.3     1     ****   -0.0340 
      3 C3          1.3110    9.2350    4.5870 C.3     1     ****   -0.0710 
      4 C4          0.3400    8.6630    3.5490 C.3     1     ****   -0.1080 
      5 C5          0.3880    7.1390    3.4500 C.3     1     ****    0.1420 
      6 C6          0.1390    6.4650    4.8060 C.3     1     ****   -0.1050 
      7 C7          0.2490    7.4230    6.0000 C.3     1     ****   -0.0550 
      8 C8          0.2410    6.6410    7.3400 C.3     1     ****   -0.0740 
      9 C9          0.4390    7.5400    8.5740 C.3     1     ****   -0.0710 
     10 C10         1.7220    8.3550    8.3900 C.3     1     ****   -0.0460 
     11 C11         1.5670    9.2440    7.1370 C.3     1     ****   -0.0560 
     12 C12         2.6760   10.3180    7.1500 C.3     1     ****   -0.0720 
     13 C13         2.4600   11.3030    8.3330 C.3     1     ****   -0.0600 
     14 C14         1.7390   10.6810    9.5540 C.3     1     ****   -0.1460 
     15 C15         2.1450    9.1980    9.6100 C.3     1     ****   -0.0570 
     16 C16         1.7810    8.7900   11.0370 C.3     1     ****   -0.0730 
     17 C17         2.3080    9.9870   11.8670 C.3     1     ****   -0.1890 
     18 C18         2.2450   11.1570   10.8860 C.2     1     ****    0.5730 
     19 O1          2.5370   12.3100   11.1680 O.2     1     ****   -0.5200 
     20 C19         0.2200   10.9520    9.5120 C.3     1     ****   -0.0830 
     21 O2         -0.5970    6.7010    2.5270 O.3     1     ****   -0.5980 
     22 H1         -1.4660    6.9960    2.8500 H       1     ****    0.3950 
     23 H2          2.9520    6.7480    6.4080 H       1     ****    0.0370 
     24 H3          2.8750    7.0570    4.6900 H       1     ****    0.0360 
     25 H4          3.7060    8.1930    5.7250 H       1     ****    0.0370 
     26 H5          0.9250   10.2240    4.8650 H       1     ****    0.0440 
     27 H6          2.2790    9.4250    4.1040 H       1     ****    0.0450 
     28 H7         -0.6830    8.9780    3.7970 H       1     ****    0.0370 
     29 H8          0.5390    9.1090    2.5660 H       1     ****    0.0540 
     30 H9          1.3870    6.8650    3.0800 H       1     ****    0.0760 
     31 H10        -0.8530    5.9940    4.8260 H       1     ****    0.0470 
     32 H11         0.8470    5.6330    4.9140 H       1     ****    0.0520 
     33 H12        -0.6650    8.0440    6.0480 H       1     ****    0.0450 
     34 H13        -0.7130    6.1100    7.4420 H       1     ****    0.0400 
     35 H14         1.0190    5.8680    7.3300 H       1     ****    0.0420 
     36 H15        -0.4330    8.1880    8.7040 H       1     ****    0.0430 
     37 H16         0.5070    6.9010    9.4620 H       1     ****    0.0420 
     38 H17         2.4980    7.5830    8.2470 H       1     ****    0.0510 
     39 H18         0.6390    9.8330    7.1660 H       1     ****    0.0500 
     40 H19         3.6610    9.8490    7.2580 H       1     ****    0.0410 
     41 H20         2.7020   10.8930    6.2190 H       1     ****    0.0460 
     42 H21         3.4400   11.7030    8.6240 H       1     ****    0.0550 
     43 H22         1.8890   12.1680    7.9700 H       1     ****    0.0480 
     44 H23         3.2500    9.0820    9.5940 H       1     ****    0.0470 
     45 H24         0.7010    8.6770   11.1720 H       1     ****    0.0500 
     46 H25         2.2600    7.8540   11.3410 H       1     ****    0.0510 
     47 H26         1.6790   10.1740   12.7400 H       1     ****    0.0750 
     48 H27         3.3490    9.8300   12.1610 H       1     ****    0.0740 
     49 H28        -0.3180   10.4990    8.6840 H       1     ****    0.0470 
     50 H29        -0.2750   10.6120   10.4300 H       1     ****    0.0360 
     51 H30         0.0360   12.0330    9.4600 H       1     ****    0.0460 
@<TRIPOS>BOND
     1  2 1 1
     2  3 2 1
     3  4 3 1
     4  5 4 1
     5  6 5 1
     6  7 2 1
     7  7 6 1
     8  8 7 1
     9  9 8 1
    10 10 9 1
    11 11 2 1
    12 11 10 1
    13 12 11 1
    14 13 12 1
    15 14 13 1
    16 15 10 1
    17 15 14 1
    18 16 15 1
    19 17 16 1
    20 18 14 1
    21 18 17 1
    22 19 18 2
    23 20 14 1
    24 21 5 1
    25 22 21 1
    26 23 1 1
    27 24 1 1
    28 25 1 1
    29 26 3 1
    30 27 3 1
    31 28 4 1
    32 29 4 1
    33 30 5 1
    34 31 6 1
    35 32 6 1
    36 33 7 1
    37 34 8 1
    38 35 8 1
    39 36 9 1
    40 37 9 1
    41 38 10 1
    42 39 11 1
    43 40 12 1
    44 41 12 1
    45 42 13 1
    46 43 13 1
    47 44 15 1
    48 45 16 1
    49 46 16 1
    50 47 17 1
    51 48 17 1
    52 49 20 1
    53 50 20 1
    54 51 20 1
@<TRIPOS>SUBSTRUCTURE
1     ****    1
@<TRIPOS>MOLECULE
ZINC00001012
31 33 1 0 0 
SMALL
USER_CHARGES


@<TRIPOS>ATOM
      1 C1          6.5160  -10.4100    0.0600 C.ar    1     ****   -0.0950 
      2 C2          5.5700   -9.8350   -0.7850 C.ar    1     ****   -0.1460 
      3 C3          5.0010   -8.6010   -0.4640 C.ar    1     ****   -0.0730 
      4 C4          5.3780   -7.9340    0.7100 C.ar    1     ****   -0.1380 
      5 C5          6.3310   -8.5170    1.5560 C.ar    1     ****   -0.0680 
      6 C6          6.8960   -9.7520    1.2290 C.ar    1     ****   -0.1490 
      7 C7          4.7420   -6.6230    1.0040 C.2     1     ****    0.6500 
      8 O1          3.9120   -6.1050    0.2730 O.2     1     ****   -0.5190 
      9 O2          5.2330   -6.1200    2.1940 O.3     1     ****   -0.3720 
     10 C8          4.6780   -4.8840    2.5340 C.ar    1     ****    0.1080 
     11 C9          3.5490   -4.8480    3.3460 C.ar    1     ****   -0.1220 
     12 C10         3.0170   -3.6130    3.7130 C.ar    1     ****   -0.1080 
     13 C11         3.6160   -2.4150    3.2810 C.ar    1     ****   -0.0380 
     14 C12         3.0890   -1.1650    3.6440 C.ar    1     ****   -0.1160 
     15 C13         3.6950    0.0160    3.2120 C.ar    1     ****   -0.1260 
     16 C14         4.8340   -0.0370    2.4130 C.ar    1     ****   -0.1250 
     17 C15         5.3710   -1.2700    2.0430 C.ar    1     ****   -0.1160 
     18 C16         4.7750   -2.4680    2.4670 C.ar    1     ****   -0.0280 
     19 C17         5.3040   -3.7150    2.1030 C.ar    1     ****   -0.1140 
     20 H1          6.9580  -11.3700   -0.1910 H       1     ****    0.1370 
     21 H2          5.2730  -10.3470   -1.6960 H       1     ****    0.1410 
     22 H3          4.2650   -8.1730   -1.1400 H       1     ****    0.1580 
     23 H4          6.6510   -8.0340    2.4750 H       1     ****    0.1560 
     24 H5          7.6340  -10.2010    1.8870 H       1     ****    0.1400 
     25 H6          3.0830   -5.7660    3.6910 H       1     ****    0.1470 
     26 H7          2.1300   -3.5900    4.3430 H       1     ****    0.1370 
     27 H8          2.2000   -1.1000    4.2680 H       1     ****    0.1330 
     28 H9          3.2770    0.9760    3.5000 H       1     ****    0.1330 
     29 H10         5.3040    0.8830    2.0780 H       1     ****    0.1330 
     30 H11         6.2620   -1.2870    1.4180 H       1     ****    0.1350 
     31 H12         6.1960   -3.7800    1.4840 H       1     ****    0.1470 
@<TRIPOS>BOND
     1  2 1 ar
     2  3 2 ar
     3  4 3 ar
     4  5 4 ar
     5  6 1 ar
     6  6 5 ar
     7  7 4 1
     8  8 7 2
     9  9 7 1
    10 10 9 1
    11 11 10 ar
    12 12 11 ar
    13 13 12 ar
    14 14 13 ar
    15 15 14 ar
    16 16 15 ar
    17 17 16 ar
    18 18 13 ar
    19 18 17 ar
    20 19 10 ar
    21 19 18 ar
    22 20 1 1
    23 21 2 1
    24 22 3 1
    25 23 5 1
    26 24 6 1
    27 25 11 1
    28 26 12 1
    29 27 14 1
    30 28 15 1
    31 29 16 1
    32 30 17 1
    33 31 19 1
@<TRIPOS>SUBSTRUCTURE
1     ****    1
@<TRIPOS>MOLECULE
ZINC00001015
30 32 1 0 0 
SMALL
USER_CHARGES


@<TRIPOS>ATOM
      1 C1          6.1410   -9.7470   -0.4080 C.ar    1     ****   -0.0970 
      2 C2          6.0060   -8.7530   -1.3750 C.ar    1     ****   -0.1470 
      3 C3          5.5110   -7.4960   -1.0220 C.ar    1     ****   -0.0750 
      4 C4          5.1460   -7.2280    0.3040 C.ar    1     ****   -0.1320 
      5 C5          5.2880   -8.2300    1.2730 C.ar    1     ****   -0.0650 
      6 C6          5.7840   -9.4850    0.9140 C.ar    1     ****   -0.1490 
      7 C7          4.6290   -5.8740    0.6270 C.2     1     ****    0.6610 
      8 O1          4.6420   -4.9460   -0.1670 O.2     1     ****   -0.5190 
      9 O2          4.1370   -5.8580    1.9190 O.3     1     ****   -0.3590 
     10 C8          3.6640   -4.5950    2.3080 C.ar    1     ****    0.0730 
     11 C9          2.3060   -4.3250    2.1190 C.ar    1     ****   -0.1200 
     12 C10         1.8000   -3.0960    2.5180 C.ar    1     ****   -0.1180 
     13 C11         2.6480   -2.1610    3.1100 C.ar    1     ****   -0.1120 
     14 C12         4.0110   -2.4510    3.3120 C.ar    1     ****   -0.1400 
     15 C13         4.5440   -3.6940    2.9130 C.ar    1     ****    0.3960 
     16 N1          5.8460   -4.0010    3.1040 N.ar    1     ****   -0.6450 
     17 C14         6.6440   -3.0800    3.6890 C.ar    1     ****    0.4140 
     18 C15         6.2110   -1.8380    4.1070 C.ar    1     ****   -0.2460 
     19 C16         4.8730   -1.5250    3.9140 C.ar    1     ****   -0.0810 
     20 H1          6.5270  -10.7250   -0.6830 H       1     ****    0.1350 
     21 H2          6.2860   -8.9560   -2.4040 H       1     ****    0.1390 
     22 H3          5.4140   -6.7370   -1.7950 H       1     ****    0.1560 
     23 H4          5.0260   -8.0590    2.3140 H       1     ****    0.1580 
     24 H5          5.8930  -10.2600    1.6680 H       1     ****    0.1390 
     25 H6          1.6530   -5.0620    1.6610 H       1     ****    0.1500 
     26 H7          0.7490   -2.8630    2.3730 H       1     ****    0.1390 
     27 H8          2.2380   -1.2020    3.4190 H       1     ****    0.1370 
     28 H9          7.6790   -3.3810    3.8140 H       1     ****    0.0240 
     29 H10         6.8910   -1.1330    4.5710 H       1     ****    0.1450 
     30 H11         4.5060   -0.5530    4.2370 H       1     ****    0.1400 
@<TRIPOS>BOND
     1  2 1 ar
     2  3 2 ar
     3  4 3 ar
     4  5 4 ar
     5  6 1 ar
     6  6 5 ar
     7  7 4 1
     8  8 7 2
     9  9 7 1
    10 10 9 1
    11 11 10 ar
    12 12 11 ar
    13 13 12 ar
    14 14 13 ar
    15 15 10 ar
    16 15 14 ar
    17 16 15 ar
    18 17 16 ar
    19 18 17 ar
    20 19 14 ar
    21 19 18 ar
    22 20 1 1
    23 21 2 1
    24 22 3 1
    25 23 5 1
    26 24 6 1
    27 25 11 1
    28 26 12 1
    29 27 13 1
    30 28 17 1
    31 29 18 1
    32 30 19 1
@<TRIPOS>SUBSTRUCTURE
1     ****    1
@<TRIPOS>MOLECULE
ZINC00001036
47 50 1 0 0 
SMALL
USER_CHARGES


@<TRIPOS>ATOM
      1 C1          5.2970   -5.0640   -0.0110 C.3     1     ****   -0.0870 
      2 C2          4.8250   -6.4980    0.3640 C.3     1     ****   -0.0790 
      3 C3          5.9650   -7.2360    1.1260 C.3     1     ****   -0.0640 
      4 C4          5.8510   -7.1740    2.6700 C.3     1     ****   -0.0680 
      5 C5          5.1720   -5.8640    3.1170 C.3     1     ****   -0.0480 
      6 C6          3.6970   -5.8950    2.6440 C.3     1     ****   -0.0480 
      7 C7          3.5610   -6.5320    1.2380 C.3     1     ****   -0.0570 
      8 C8          2.4630   -6.0750    0.2750 C.3     1     ****   -0.0710 
      9 C9          2.9010   -6.6550   -1.0940 C.3     1     ****   -0.0800 
     10 C10         4.3480   -7.1890   -0.9210 C.3     1     ****    0.1410 
     11 O1          4.2740   -8.5980   -0.7390 O.3     1     ****   -0.5950 
     12 C11         3.1150   -4.4790    2.7680 C.3     1     ****   -0.0700 
     13 C12         3.1570   -4.0420    4.2430 C.3     1     ****   -0.0540 
     14 C13         4.5320   -4.2130    4.8600 C.2     1     ****   -0.0380 
     15 C14         5.1110   -3.1690    5.4750 C.2     1     ****   -0.2540 
     16 C15         6.4890   -3.2420    5.9980 C.2     1     ****    0.5620 
     17 O2          6.9920   -2.2990    6.5980 O.2     1     ****   -0.5340 
     18 C16         7.2460   -4.4830    5.7560 C.2     1     ****   -0.2430 
     19 C17         6.6690   -5.5230    5.1450 C.2     1     ****   -0.1020 
     20 C18         5.2260   -5.5720    4.6590 C.3     1     ****    0.0060 
     21 C19         4.5360   -6.6510    5.5250 C.3     1     ****   -0.0810 
     22 H1          5.1480   -8.9660   -0.9530 H       1     ****    0.3990 
     23 H2          4.5350   -4.5120   -0.5710 H       1     ****    0.0380 
     24 H3          5.5740   -4.4320    0.8290 H       1     ****    0.0430 
     25 H4          6.1760   -5.1230   -0.6630 H       1     ****    0.0330 
     26 H5          6.0270   -8.2940    0.8560 H       1     ****    0.0420 
     27 H6          6.9330   -6.8120    0.8290 H       1     ****    0.0410 
     28 H7          5.2730   -8.0370    3.0220 H       1     ****    0.0450 
     29 H8          6.8580   -7.2820    3.0810 H       1     ****    0.0410 
     30 H9          5.7550   -5.0820    2.6090 H       1     ****    0.0620 
     31 H10         3.0690   -6.4930    3.3280 H       1     ****    0.0480 
     32 H11         3.2740   -7.5760    1.4830 H       1     ****    0.0590 
     33 H12         1.4780   -6.4480    0.5700 H       1     ****    0.0470 
     34 H13         2.3980   -4.9840    0.2020 H       1     ****    0.0420 
     35 H14         2.2140   -7.4460   -1.4140 H       1     ****    0.0680 
     36 H15         2.8710   -5.8570   -1.8460 H       1     ****    0.0460 
     37 H16         4.9450   -6.9720   -1.8180 H       1     ****    0.0370 
     38 H17         3.6730   -3.7680    2.1490 H       1     ****    0.0510 
     39 H18         2.0710   -4.4570    2.4360 H       1     ****    0.0490 
     40 H19         2.8170   -3.0010    4.3050 H       1     ****    0.0550 
     41 H20         2.4350   -4.6330    4.8200 H       1     ****    0.0560 
     42 H21         4.6030   -2.2170    5.5900 H       1     ****    0.1490 
     43 H22         8.2720   -4.5260    6.1030 H       1     ****    0.1500 
     44 H23         7.2710   -6.4210    5.0290 H       1     ****    0.1320 
     45 H24         4.6590   -6.4340    6.5940 H       1     ****    0.0470 
     46 H25         3.4580   -6.7210    5.3540 H       1     ****    0.0450 
     47 H26         4.9630   -7.6440    5.3480 H       1     ****    0.0440 
@<TRIPOS>BOND
     1  2 1 1
     2  3 2 1
     3  4 3 1
     4  5 4 1
     5  6 5 1
     6  7 2 1
     7  7 6 1
     8  8 7 1
     9  9 8 1
    10 10 2 1
    11 10 9 1
    12 11 10 1
    13 12 6 1
    14 13 12 1
    15 14 13 1
    16 15 14 2
    17 16 15 1
    18 17 16 2
    19 18 16 1
    20 19 18 2
    21 20 5 1
    22 20 14 1
    23 20 19 1
    24 21 20 1
    25 22 11 1
    26 23 1 1
    27 24 1 1
    28 25 1 1
    29 26 3 1
    30 27 3 1
    31 28 4 1
    32 29 4 1
    33 30 5 1
    34 31 6 1
    35 32 7 1
    36 33 8 1
    37 34 8 1
    38 35 9 1
    39 36 9 1
    40 37 10 1
    41 38 12 1
    42 39 12 1
    43 40 13 1
    44 41 13 1
    45 42 15 1
    46 43 18 1
    47 44 19 1
    48 45 21 1
    49 46 21 1
    50 47 21 1
@<TRIPOS>SUBSTRUCTURE
1     ****    1
@<TRIPOS>MOLECULE
ZINC00001084
24 25 1 0 0 
SMALL
USER_CHARGES


@<TRIPOS>ATOM
      1 C1          3.4740    9.1720   10.8180 C.3     1     ****    0.0220 
      2 N1          2.5590    9.0360    9.7130 N.pl3   1     ****   -0.1500 
      3 C2          2.3580    7.9000    8.9750 C.2     1     ****    0.4450 
      4 N2          1.4590    8.0810    8.0300 N.2     1     ****   -0.6860 
      5 C3          1.0740    9.3860    8.1760 C.2     1     ****    0.4870 
      6 C4          1.7350   10.0020    9.2050 C.2     1     ****   -0.3530 
      7 C5          1.5280   11.3660    9.5810 C.2     1     ****    0.7640 
      8 O1          2.1240   11.9100   10.5050 O.2     1     ****   -0.6300 
      9 N3          0.5610   11.9980    8.7600 N.am    1     ****   -0.4840 
     10 C6         -0.1590   11.4020    7.6720 C.2     1     ****    0.8140 
     11 O2         -0.9870   12.0420    7.0140 O.2     1     ****   -0.6380 
     12 N4          0.1350   10.0480    7.4010 N.am    1     ****   -0.4180 
     13 C7         -0.5380    9.3460    6.3180 C.3     1     ****    0.0910 
     14 C8          0.2520   13.3960    9.0340 C.3     1     ****    0.0810 
     15 H1          3.9910    8.2240   10.9840 H       1     ****    0.0570 
     16 H2          4.2000    9.9510   10.5740 H       1     ****    0.0720 
     17 H3          2.9030    9.4410   11.7110 H       1     ****    0.0750 
     18 H4          2.8890    6.9770    9.1680 H       1     ****    0.0700 
     19 H5         -1.2480    9.9930    5.7970 H       1     ****    0.0840 
     20 H6          0.2110    8.9960    5.6000 H       1     ****    0.0530 
     21 H7         -1.0800    8.4890    6.7310 H       1     ****    0.0530 
     22 H8          0.8280   13.7960    9.8710 H       1     ****    0.0810 
     23 H9          0.4640   13.9860    8.1370 H       1     ****    0.0550 
     24 H10        -0.8160   13.4830    9.2580 H       1     ****    0.0550 
@<TRIPOS>BOND
     1  2 1 1
     2  3 2 1
     3  4 3 2
     4  5 4 1
     5  6 2 1
     6  6 5 ar
     7  7 6 1
     8  8 7 2
     9  9 7 1
    10 10 9 1
    11 11 10 2
    12 12 5 1
    13 12 10 1
    14 13 12 1
    15 14 9 1
    16 15 1 1
    17 16 1 1
    18 17 1 1
    19 18 3 1
    20 19 13 1
    21 20 13 1
    22 21 13 1
    23 22 14 1
    24 23 14 1
    25 24 14 1
@<TRIPOS>SUBSTRUCTURE
1     ****    1
@<TRIPOS>MOLECULE
ZINC00001087
42 46 1 0 0 
SMALL
USER_CHARGES


@<TRIPOS>ATOM
      1 C1         -3.1790    0.8370   -1.0150 C.3     1     ****   -0.0940 
      2 C2         -2.4950    0.3970    0.2750 C.3     1     ****   -0.0980 
      3 C3         -0.9570    0.5620    0.2880 C.3     1     ****    0.1210 
      4 C4         -0.5160    2.0040    0.1770 C.2     1     ****    0.0230 
      5 C5         -0.2600    2.5940   -1.1290 C.2     1     ****   -0.1540 
      6 C6          0.1010    3.8780   -1.2010 C.2     1     ****   -0.0170 
      7 N1          0.2360    4.6580   -0.0650 N.am    1     ****   -0.3520 
      8 C7          0.0120    4.1930    1.2160 C.2     1     ****    0.7150 
      9 O1          0.1170    4.8780    2.2300 O.2     1     ****   -0.6390 
     10 C8         -0.3860    2.7450    1.2940 C.2     1     ****   -0.2410 
     11 C9         -0.6310    2.1540    2.6410 C.3     1     ****    0.1850 
     12 O2         -0.4080    0.7270    2.6860 O.3     1     ****   -0.3910 
     13 C10        -0.4300   -0.0600    1.5840 C.2     1     ****    0.6870 
     14 O3         -0.0870   -1.2390    1.6460 O.2     1     ****   -0.5790 
     15 C11         0.6370    6.0350   -0.4110 C.3     1     ****    0.1460 
     16 C12         0.7240    5.9740   -1.9010 C.ar    1     ****   -0.2230 
     17 C13         0.4080    4.7030   -2.3610 C.ar    1     ****    0.4550 
     18 N2          0.3890    4.3120   -3.6420 N.ar    1     ****   -0.6100 
     19 C14         0.7100    5.2570   -4.5490 C.ar    1     ****    0.3910 
     20 C15         0.7140    4.9310   -5.9010 C.ar    1     ****   -0.1600 
     21 C16         1.0390    5.8720   -6.8810 C.ar    1     ****   -0.1210 
     22 C17         1.3700    7.1720   -6.5170 C.ar    1     ****   -0.1170 
     23 C18         1.3760    7.5310   -5.1710 C.ar    1     ****   -0.1140 
     24 C19         1.0500    6.5900   -4.1820 C.ar    1     ****   -0.1360 
     25 C20         1.0520    6.9420   -2.8220 C.ar    1     ****   -0.0560 
     26 O4         -0.4020   -0.1880   -0.7910 O.3     1     ****   -0.5740 
     27 H1         -0.6830   -1.1140   -0.6870 H       1     ****    0.4320 
     28 H2         -4.2470    0.5990   -0.9690 H       1     ****    0.0430 
     29 H3         -3.0920    1.9170   -1.1670 H       1     ****    0.0440 
     30 H4         -2.7600    0.3250   -1.8860 H       1     ****    0.0520 
     31 H5         -2.9470    0.9360    1.1180 H       1     ****    0.0570 
     32 H6         -2.7390   -0.6630    0.4250 H       1     ****    0.0620 
     33 H7         -0.3700    1.9920   -2.0240 H       1     ****    0.1910 
     34 H8          0.0550    2.5820    3.3790 H       1     ****    0.1120 
     35 H9         -1.6540    2.3530    2.9780 H       1     ****    0.0620 
     36 H10        -0.1330    6.7280   -0.0600 H       1     ****    0.0860 
     37 H11         1.6000    6.2530    0.0610 H       1     ****    0.0870 
     38 H12         0.4580    3.9200   -6.2110 H       1     ****    0.1550 
     39 H13         1.0330    5.5860   -7.9290 H       1     ****    0.1410 
     40 H14         1.6230    7.9040   -7.2780 H       1     ****    0.1400 
     41 H15         1.6370    8.5520   -4.9010 H       1     ****    0.1380 
     42 H16         1.3050    7.9470   -2.4980 H       1     ****    0.1490 
@<TRIPOS>BOND
     1  2 1 1
     2  3 2 1
     3  4 3 1
     4  5 4 1
     5  6 5 2
     6  7 6 1
     7  8 7 1
     8  9 8 2
     9 10 4 2
    10 10 8 1
    11 11 10 1
    12 12 11 1
    13 13 3 1
    14 13 12 1
    15 14 13 2
    16 15 7 1
    17 16 15 1
    18 17 6 1
    19 17 16 ar
    20 18 17 ar
    21 19 18 ar
    22 20 19 ar
    23 21 20 ar
    24 22 21 ar
    25 23 22 ar
    26 24 19 ar
    27 24 23 ar
    28 25 16 ar
    29 25 24 ar
    30 26 3 1
    31 27 26 1
    32 28 1 1
    33 29 1 1
    34 30 1 1
    35 31 2 1
    36 32 2 1
    37 33 5 1
    38 34 11 1
    39 35 11 1
    40 36 15 1
    41 37 15 1
    42 38 20 1
    43 39 21 1
    44 40 22 1
    45 41 23 1
    46 42 25 1
@<TRIPOS>SUBSTRUCTURE
1     ****    1
@<TRIPOS>MOLECULE
ZINC00001099
19 19 1 0 0 
SMALL
USER_CHARGES


@<TRIPOS>ATOM
      1 C1          2.9310   -5.6610   -0.7740 C.ar    1     ****   -0.1430 
      2 C2          1.9450   -4.7230   -0.4560 C.ar    1     ****   -0.0420 
      3 C3          0.7120   -5.1620    0.0220 C.ar    1     ****   -0.4540 
      4 C4          0.4590   -6.5200    0.2010 C.ar    1     ****   -0.0360 
      5 C5          1.4510   -7.4510   -0.1180 C.ar    1     ****   -0.1430 
      6 C6          2.7000   -7.0370   -0.6110 C.ar    1     ****   -0.0490 
      7 C7          3.7680   -8.0470   -0.9570 C.2     1     ****    0.9020 
      8 O1          4.8720   -7.5980   -1.3980 O.co2   1     ****   -0.8150 
      9 S1         -0.5300   -3.9800    0.4460 S.o2    1     ****    1.5400 
     10 O2         -1.4160   -4.5920    1.4170 O.3     1     ****   -0.6880 
     11 O3          0.1330   -2.7240    0.7340 O.3     1     ****   -0.6830 
     12 N1         -1.3640   -3.8370   -1.0390 N.3     1     ****   -1.0250 
     13 H1         -2.3240   -4.2020   -1.0280 H       1     ****    0.4320 
     14 H2         -0.8580   -4.1610   -1.8730 H       1     ****    0.4360 
     15 H3          3.8860   -5.3010   -1.1500 H       1     ****    0.1620 
     16 H4          2.1570   -3.6670   -0.5940 H       1     ****    0.1310 
     17 H5         -0.4950   -6.8750    0.5790 H       1     ****    0.1280 
     18 H6          1.2350   -8.5080    0.0240 H       1     ****    0.1620 
     19 O4          3.4870   -9.2740   -0.7840 O.co2   1     ****   -0.8150 
@<TRIPOS>BOND
     1  2 1 ar
     2  3 2 ar
     3  4 3 ar
     4  5 4 ar
     5  6 1 ar
     6  6 5 ar
     7  7 6 1
     8  8 7 1
     9  9 3 1
    10 10 9 1
    11 11 9 1
    12 12 9 1
    13 13 12 1
    14 14 12 1
    15 15 1 1
    16 16 2 1
    17 17 4 1
    18 18 5 1
    19 19 7 2
@<TRIPOS>SUBSTRUCTURE
1     ****    1
@<TRIPOS>MOLECULE
ZINC00001116
23 24 1 0 0 
SMALL
USER_CHARGES


@<TRIPOS>ATOM
      1 C1          2.8710   -7.4200    0.9780 C.ar    1     ****   -0.1790 
      2 C2          2.8590   -8.7030    0.4240 C.ar    1     ****   -0.0970 
      3 C3          2.4320   -8.8800   -0.8870 C.ar    1     ****   -0.0130 
      4 C4          2.0200   -7.7860   -1.6410 C.ar    1     ****   -0.1000 
      5 C5          2.0340   -6.5030   -1.0790 C.ar    1     ****   -0.1450 
      6 C6          2.4590   -6.2940    0.2400 C.ar    1     ****    0.1730 
      7 N1          2.5000   -5.0370    0.8700 N.pl3   1     ****   -0.7270 
      8 C7          2.1750   -3.7350    0.4540 C.ar    1     ****    0.9410 
      9 N2          1.7140   -3.4830   -0.7800 N.ar    1     ****   -0.8130 
     10 C8          1.4450   -2.1990   -1.0410 C.ar    1     ****    0.7120 
     11 N3          1.5900   -1.1690   -0.2020 N.ar    1     ****   -0.8110 
     12 C9          2.0540   -1.5000    1.0100 C.ar    1     ****    0.9360 
     13 N4          2.3550   -2.7620    1.3720 N.ar    1     ****   -0.8570 
     14 N5          2.2330   -0.4940    1.9400 N.pl3   1     ****   -0.9580 
     15 CL1         2.4140  -10.4560   -1.5790 Cl      1     ****   -0.0950 
     16 H1          2.8320   -5.0490    1.8290 H       1     ****    0.4580 
     17 H2          2.0140    0.4590    1.6900 H       1     ****    0.4540 
     18 H3          2.5820   -0.7210    2.8590 H       1     ****    0.4510 
     19 H4          3.2090   -7.3040    2.0070 H       1     ****    0.1360 
     20 H5          3.1850   -9.5480    1.0260 H       1     ****    0.1480 
     21 H6          1.6840   -7.9110   -2.6670 H       1     ****    0.1490 
     22 H7          1.7030   -5.6840   -1.7070 H       1     ****    0.1800 
     23 H8          1.0720   -1.9720   -2.0320 H       1     ****    0.0560 
@<TRIPOS>BOND
     1  2 1 ar
     2  3 2 ar
     3  4 3 ar
     4  5 4 ar
     5  6 1 ar
     6  6 5 ar
     7  7 6 1
     8  8 7 1
     9  9 8 ar
    10 10 9 ar
    11 11 10 ar
    12 12 11 ar
    13 13 8 ar
    14 13 12 ar
    15 14 12 1
    16 15 3 1
    17 16 7 1
    18 17 14 1
    19 18 14 1
    20 19 1 1
    21 20 2 1
    22 21 4 1
    23 22 5 1
    24 23 10 1
@<TRIPOS>SUBSTRUCTURE
1     ****    1
@<TRIPOS>MOLECULE
ZINC00001118
35 37 1 0 0 
SMALL
USER_CHARGES


@<TRIPOS>ATOM
      1 C1          4.0420    9.0830    3.3090 C.3     1     ****    0.1790 
      2 N1          2.8180    9.6920    3.7710 N.pl3   1     ****   -0.7940 
      3 C2          1.9710    9.1200    4.7000 C.2     1     ****    0.6130 
      4 N2          2.2070    7.9650    5.2560 N.2     1     ****   -0.6340 
      5 C3          1.3200    7.3990    6.1900 C.ar    1     ****    0.1610 
      6 C4          1.0720    6.0230    6.0640 C.ar    1     ****   -0.1090 
      7 C5          0.2380    5.3500    6.9580 C.ar    1     ****   -0.1120 
      8 C6         -0.3550    6.0510    8.0020 C.ar    1     ****    0.0050 
      9 C7         -0.1190    7.4160    8.1600 C.ar    1     ****   -0.0920 
     10 C8          0.7220    8.0920    7.2610 C.ar    1     ****   -0.1460 
     11 C9          0.9410    9.5480    7.4770 C.2     1     ****    0.1020 
     12 N3          0.9520   10.3860    6.4520 N.2     1     ****    0.3960 
     13 C10         0.7450    9.9330    5.0610 C.3     1     ****   -0.1450 
     14 O1          1.1670   11.6350    6.6180 O.3     1     ****   -0.5640 
     15 C11         1.1560   10.0550    8.8530 C.ar    1     ****   -0.1180 
     16 C12         2.2210    9.5500    9.6050 C.ar    1     ****   -0.1020 
     17 C13         2.4180   10.0050   10.9090 C.ar    1     ****   -0.1360 
     18 C14         1.5540   10.9540   11.4570 C.ar    1     ****   -0.1190 
     19 C15         0.4890   11.4510   10.7040 C.ar    1     ****   -0.1350 
     20 C16         0.2850   11.0020    9.4000 C.ar    1     ****   -0.0940 
     21 CL1        -1.3880    5.2280    9.1070 Cl      1     ****   -0.0870 
     22 H1          2.5950   10.6050    3.3840 H       1     ****    0.4190 
     23 H2          4.5280    9.7330    2.5750 H       1     ****    0.0470 
     24 H3          4.7360    8.9290    4.1410 H       1     ****    0.0330 
     25 H4          3.8380    8.1210    2.8290 H       1     ****    0.0660 
     26 H5          1.5360    5.4640    5.2540 H       1     ****    0.1540 
     27 H6          0.0650    4.2850    6.8280 H       1     ****    0.1510 
     28 H7         -0.6010    7.9480    8.9760 H       1     ****    0.1620 
     29 H8          0.6440   10.8120    4.4170 H       1     ****    0.1110 
     30 H9         -0.1760    9.3480    4.9970 H       1     ****    0.1010 
     31 H10         2.9020    8.8140    9.1880 H       1     ****    0.1410 
     32 H11         3.2450    9.6210   11.4980 H       1     ****    0.1340 
     33 H12         1.7110   11.3070   12.4730 H       1     ****    0.1320 
     34 H13        -0.1830   12.1880   11.1350 H       1     ****    0.1340 
     35 H14        -0.5530   11.3890    8.8260 H       1     ****    0.1450 
@<TRIPOS>BOND
     1  2 1 1
     2  3 2 1
     3  4 3 2
     4  5 4 1
     5  6 5 ar
     6  7 6 ar
     7  8 7 ar
     8  9 8 ar
     9 10 5 ar
    10 10 9 ar
    11 11 10 1
    12 12 11 2
    13 13 3 1
    14 13 12 1
    15 14 12 1
    16 15 11 1
    17 16 15 ar
    18 17 16 ar
    19 18 17 ar
    20 19 18 ar
    21 20 15 ar
    22 20 19 ar
    23 21 8 1
    24 22 2 1
    25 23 1 1
    26 24 1 1
    27 25 1 1
    28 26 6 1
    29 27 7 1
    30 28 9 1
    31 29 13 1
    32 30 13 1
    33 31 16 1
    34 32 17 1
    35 33 18 1
    36 34 19 1
    37 35 20 1
@<TRIPOS>SUBSTRUCTURE
1     ****    1
@<TRIPOS>MOLECULE
ZINC00001132
19 19 1 0 0 
SMALL
USER_CHARGES


@<TRIPOS>ATOM
      1 C1          1.0490   -4.6530   -2.6240 C.3     1     ****   -0.0590 
      2 C2          0.0030   -5.7310   -2.5320 C.ar    1     ****   -0.0230 
      3 C3         -0.4100   -6.3750   -3.7070 C.ar    1     ****   -0.2150 
      4 C4         -1.3760   -7.3760   -3.6540 C.ar    1     ****    0.1330 
      5 C5         -1.9460   -7.7540   -2.4420 C.ar    1     ****   -0.1590 
      6 C6         -1.5540   -7.1280   -1.2500 C.ar    1     ****   -0.0280 
      7 C7         -0.5760   -6.1140   -1.3040 C.ar    1     ****   -0.0250 
      8 CL1        -0.0770   -5.3260    0.1620 Cl      1     ****   -0.0990 
      9 C8         -2.1920   -7.5620    0.0410 C.3     1     ****   -0.0590 
     10 O1         -1.7910   -8.0160   -4.7870 O.3     1     ****   -0.4960 
     11 H1         -1.3080   -7.6480   -5.5470 H       1     ****    0.4200 
     12 H2          1.3770   -4.4970   -3.6570 H       1     ****    0.0430 
     13 H3          0.6490   -3.7010   -2.2610 H       1     ****    0.0570 
     14 H4          1.9330   -4.9280   -2.0390 H       1     ****    0.0570 
     15 H5          0.0250   -6.0930   -4.6630 H       1     ****    0.1380 
     16 H6         -2.6990   -8.5390   -2.4290 H       1     ****    0.1550 
     17 H7         -2.9260   -8.3590   -0.1200 H       1     ****    0.0460 
     18 H8         -1.4350   -7.9500    0.7290 H       1     ****    0.0570 
     19 H9         -2.7190   -6.7230    0.5070 H       1     ****    0.0570 
@<TRIPOS>BOND
     1  2 1 1
     2  3 2 ar
     3  4 3 ar
     4  5 4 ar
     5  6 5 ar
     6  7 2 ar
     7  7 6 ar
     8  8 7 1
     9  9 6 1
    10 10 4 1
    11 11 10 1
    12 12 1 1
    13 13 1 1
    14 14 1 1
    15 15 3 1
    16 16 5 1
    17 17 9 1
    18 18 9 1
    19 19 9 1
@<TRIPOS>SUBSTRUCTURE
1     ****    1
@<TRIPOS>MOLECULE
ZINC00001145
32 33 1 0 0 
SMALL
USER_CHARGES


@<TRIPOS>ATOM
      1 C1          3.6850   -8.3190    2.1490 C.3     1     ****   -0.0690 
      2 C2          3.5370   -7.3060    1.0550 C.2     1     ****    0.0320 
      3 C3          2.4300   -6.3730    1.1650 C.2     1     ****   -0.2630 
      4 C4          2.2150   -5.4290    0.2280 C.2     1     ****    0.1030 
      5 N1          3.0880   -5.3810   -0.8410 N.am    1     ****   -0.2150 
      6 C5          4.1730   -6.2090   -1.0440 C.2     1     ****    0.6830 
      7 O1          4.9480   -6.1420   -1.9950 O.2     1     ****   -0.6510 
      8 C6          4.3770   -7.2420    0.0100 C.2     1     ****   -0.2720 
      9 O2          2.8720   -4.4030   -1.8250 O.3     1     ****   -0.3950 
     10 C7          1.0480   -4.4620    0.3600 C.3     1     ****   -0.0230 
     11 C8         -0.0020   -4.6170   -0.7560 C.3     1     ****   -0.0770 
     12 C9         -1.1880   -3.6770   -0.5420 C.3     1     ****   -0.0760 
     13 C10        -0.7390   -2.2270   -0.3870 C.3     1     ****   -0.0790 
     14 C11         0.2860   -2.0720    0.7330 C.3     1     ****   -0.0760 
     15 C12         1.4870   -2.9960    0.5320 C.3     1     ****   -0.0750 
     16 H1          3.7810   -4.1240   -2.0300 H       1     ****    0.4440 
     17 H2          4.5440   -8.9780    1.9820 H       1     ****    0.0510 
     18 H3          3.8310   -7.8240    3.1160 H       1     ****    0.0550 
     19 H4          2.7920   -8.9500    2.2130 H       1     ****    0.0560 
     20 H5          1.7800   -6.4640    2.0300 H       1     ****    0.1520 
     21 H6          5.2160   -7.9190   -0.1100 H       1     ****    0.1660 
     22 H7          0.5210   -4.7190    1.2930 H       1     ****    0.0630 
     23 H8          0.4320   -4.4050   -1.7390 H       1     ****    0.0670 
     24 H9         -0.3640   -5.6520   -0.7890 H       1     ****    0.0460 
     25 H10        -1.8810   -3.7600   -1.3870 H       1     ****    0.0450 
     26 H11        -1.7410   -3.9860    0.3540 H       1     ****    0.0380 
     27 H12        -0.3040   -1.8760   -1.3310 H       1     ****    0.0440 
     28 H13        -1.6080   -1.5930   -0.1800 H       1     ****    0.0410 
     29 H14         0.6260   -1.0320    0.7800 H       1     ****    0.0440 
     30 H15        -0.1890   -2.2960    1.6970 H       1     ****    0.0380 
     31 H16         2.1600   -2.9050    1.3930 H       1     ****    0.0440 
     32 H17         2.0480   -2.6460   -0.3420 H       1     ****    0.0590 
@<TRIPOS>BOND
     1  2 1 1
     2  3 2 1
     3  4 3 2
     4  5 4 1
     5  6 5 1
     6  7 6 2
     7  8 2 2
     8  8 6 1
     9  9 5 1
    10 10 4 1
    11 11 10 1
    12 12 11 1
    13 13 12 1
    14 14 13 1
    15 15 10 1
    16 15 14 1
    17 16 9 1
    18 17 1 1
    19 18 1 1
    20 19 1 1
    21 20 3 1
    22 21 8 1
    23 22 10 1
    24 23 11 1
    25 24 11 1
    26 25 12 1
    27 26 12 1
    28 27 13 1
    29 28 13 1
    30 29 14 1
    31 30 14 1
    32 31 15 1
    33 32 15 1
@<TRIPOS>SUBSTRUCTURE
1     ****    1
@<TRIPOS>MOLECULE
ZINC00001216
30 32 1 0 0 
SMALL
USER_CHARGES


@<TRIPOS>ATOM
      1 C1          5.9800   -7.3980   -2.6710 C.3     1     ****   -0.0250 
      2 N1          5.2570   -6.7490   -1.5480 N.2     1     ****   -0.1520 
      3 C2          4.4110   -5.7940   -1.7480 C.2     1     ****    0.4510 
      4 C3          3.6700   -5.1480   -0.6480 C.ar    1     ****   -0.3130 
      5 C4          3.6700   -5.8070    0.6040 C.ar    1     ****    0.0370 
      6 C5          2.9600   -5.2590    1.6730 C.ar    1     ****   -0.1640 
      7 C6          2.2950   -4.0690    1.4570 C.ar    1     ****    0.2040 
      8 C7          2.2990   -3.4220    0.2340 C.ar    1     ****   -0.0610 
      9 C8          2.9800   -3.9390   -0.8580 C.ar    1     ****    0.2560 
     10 O1          3.0620   -3.4030   -2.1100 O.3     1     ****   -0.3240 
     11 C9          2.3700   -2.1910   -2.3740 C.3     1     ****    0.1140 
     12 O2          1.5670   -2.2730    0.2890 O.3     1     ****   -0.3260 
     13 C10         1.1110   -2.2720    1.6530 C.3     1     ****    0.3220 
     14 O3          1.5670   -3.4100    2.4020 O.3     1     ****   -0.2990 
     15 C11         4.3700   -7.1330    0.7350 C.3     1     ****   -0.0730 
     16 C12         5.6000   -7.2000   -0.1620 C.3     1     ****   -0.0080 
     17 H1          5.7080   -6.9220   -3.6170 H       1     ****    0.0880 
     18 H2          7.0520   -7.2880   -2.4930 H       1     ****    0.0920 
     19 H3          5.6980   -8.4540   -2.6890 H       1     ****    0.0910 
     20 H4          4.2490   -5.4590   -2.7850 H       1     ****    0.0790 
     21 H5          2.9240   -5.7480    2.6400 H       1     ****    0.1880 
     22 H6          2.5450   -1.9320   -3.4230 H       1     ****    0.0900 
     23 H7          1.2900   -2.3150   -2.2430 H       1     ****    0.0680 
     24 H8          2.7620   -1.3710   -1.7640 H       1     ****    0.0670 
     25 H9          1.4710   -1.3600    2.1430 H       1     ****    0.1030 
     26 H10         0.0150   -2.2630    1.6570 H       1     ****    0.1030 
     27 H11         4.6760   -7.3060    1.7730 H       1     ****    0.1060 
     28 H12         3.6590   -7.9240    0.4640 H       1     ****    0.0950 
     29 H13         5.9820   -8.2250   -0.2140 H       1     ****    0.0990 
     30 H14         6.4000   -6.5400    0.1930 H       1     ****    0.0920 
@<TRIPOS>BOND
     1  2 1 1
     2  3 2 2
     3  4 3 1
     4  5 4 ar
     5  6 5 ar
     6  7 6 ar
     7  8 7 ar
     8  9 4 ar
     9  9 8 ar
    10 10 9 1
    11 11 10 1
    12 12 8 1
    13 13 12 1
    14 14 7 1
    15 14 13 1
    16 15 5 1
    17 16 2 1
    18 16 15 1
    19 17 1 1
    20 18 1 1
    21 19 1 1
    22 20 3 1
    23 21 6 1
    24 22 11 1
    25 23 11 1
    26 24 11 1
    27 25 13 1
    28 26 13 1
    29 27 15 1
    30 28 15 1
    31 29 16 1
    32 30 16 1
@<TRIPOS>SUBSTRUCTURE
1     ****    1
@<TRIPOS>MOLECULE
ZINC00001276
17 17 1 0 0 
SMALL
USER_CHARGES


@<TRIPOS>ATOM
      1 C1          3.0440   -7.9920    0.8370 C.ar    1     ****   -0.0070 
      2 C2          1.9520   -7.3220    1.3910 C.ar    1     ****   -0.0790 
      3 C3          1.2150   -6.4150    0.6350 C.ar    1     ****   -0.0200 
      4 C4          1.5810   -6.1780   -0.6890 C.ar    1     ****   -0.1320 
      5 C5          2.6760   -6.8440   -1.2590 C.ar    1     ****    0.2000 
      6 C6          3.4170   -7.7630   -0.4990 C.ar    1     ****   -0.1690 
      7 C7          4.5980   -8.5250   -1.0050 C.2     1     ****    0.6790 
      8 O1          5.3530   -9.0980   -0.2230 O.2     1     ****   -0.6220 
      9 N1          4.7870   -8.5700   -2.3650 N.am    1     ****   -0.6530 
     10 O2          3.0300   -6.5830   -2.5560 O.3     1     ****   -0.5030 
     11 BR1         0.5630   -4.9310   -1.6960 Br      1     ****   -0.0700 
     12 BR2         1.4670   -7.6510    3.1910 Br      1     ****   -0.0620 
     13 H1          5.5700   -9.0800   -2.7570 H       1     ****    0.3170 
     14 H2          4.1710   -8.0970   -3.0180 H       1     ****    0.3210 
     15 H3          2.4190   -5.9130   -2.9100 H       1     ****    0.4460 
     16 H4          3.6010   -8.6990    1.4490 H       1     ****    0.1860 
     17 H5          0.3660   -5.8970    1.0740 H       1     ****    0.1660 
@<TRIPOS>BOND
     1  2 1 ar
     2  3 2 ar
     3  4 3 ar
     4  5 4 ar
     5  6 1 ar
     6  6 5 ar
     7  7 6 1
     8  8 7 2
     9  9 7 1
    10 10 5 1
    11 11 4 1
    12 12 2 1
    13 13 9 1
    14 14 9 1
    15 15 10 1
    16 16 1 1
    17 17 3 1
@<TRIPOS>SUBSTRUCTURE
1     ****    1
@<TRIPOS>MOLECULE
ZINC00001279
20 20 1 0 0 
SMALL
USER_CHARGES


@<TRIPOS>ATOM
      1 C1          5.1310   -8.3160   -0.2850 C.3     1     ****   -0.0720 
      2 C2          3.9150   -7.4490   -0.4270 C.ar    1     ****    0.0060 
      3 C3          3.9580   -6.1010   -0.0470 C.ar    1     ****   -0.1640 
      4 C4          2.8390   -5.2840   -0.2070 C.ar    1     ****    0.0080 
      5 C5          1.6730   -5.8200   -0.7550 C.ar    1     ****   -0.4120 
      6 C6          1.6180   -7.1530   -1.1600 C.ar    1     ****   -0.0010 
      7 C7          2.7420   -7.9630   -0.9960 C.ar    1     ****   -0.1640 
      8 S1          0.2670   -4.7640   -0.9660 S.o2    1     ****    1.5380 
      9 O1          0.7750   -3.5250   -1.5250 O.3     1     ****   -0.6190 
     10 O2         -0.7590   -5.5160   -1.6640 O.3     1     ****   -0.6280 
     11 N1         -0.2260   -4.5050    0.6620 N.pl3   1     ****   -0.5510 
     12 CL1        -0.7030   -5.9300    1.5290 Cl      1     ****    0.1370 
     13 CL2        -1.3680   -3.2140    0.8480 Cl      1     ****    0.1480 
     14 H1          5.7360   -8.0030    0.5730 H       1     ****    0.0540 
     15 H2          4.8480   -9.3610   -0.1180 H       1     ****    0.0540 
     16 H3          5.7420   -8.2540   -1.1900 H       1     ****    0.0610 
     17 H4          4.8670   -5.6800    0.3770 H       1     ****    0.1450 
     18 H5          2.8910   -4.2430    0.0980 H       1     ****    0.1530 
     19 H6          0.7210   -7.5780   -1.6000 H       1     ****    0.1620 
     20 H7          2.6980   -9.0010   -1.3170 H       1     ****    0.1450 
@<TRIPOS>BOND
     1  2 1 1
     2  3 2 ar
     3  4 3 ar
     4  5 4 ar
     5  6 5 ar
     6  7 2 ar
     7  7 6 ar
     8  8 5 1
     9  9 8 1
    10 10 8 1
    11 11 8 1
    12 12 11 1
    13 13 11 1
    14 14 1 1
    15 15 1 1
    16 16 1 1
    17 17 3 1
    18 18 4 1
    19 19 6 1
    20 20 7 1
@<TRIPOS>SUBSTRUCTURE
1     ****    1
@<TRIPOS>MOLECULE
ZINC00001280
19 19 1 0 0 
SMALL
USER_CHARGES


@<TRIPOS>ATOM
      1 C1          5.8650   -7.0130    0.5750 C.3     1     ****   -0.0600 
      2 C2          4.7920   -6.8610   -0.4690 C.ar    1     ****   -0.0210 
      3 C3          4.2650   -5.5870   -0.7120 C.ar    1     ****   -0.2120 
      4 C4          3.2570   -5.4100   -1.6560 C.ar    1     ****    0.1420 
      5 C5          2.7610   -6.4960   -2.3870 C.ar    1     ****   -0.0160 
      6 C6          3.2880   -7.7890   -2.1890 C.ar    1     ****   -0.0190 
      7 C7          4.2910   -7.9580   -1.2030 C.ar    1     ****   -0.0210 
      8 CL1         4.9180   -9.5460   -0.8620 Cl      1     ****   -0.0910 
      9 C8          2.7580   -8.9790   -2.9530 C.3     1     ****   -0.0670 
     10 CL2         1.4760   -6.2090   -3.5200 Cl      1     ****   -0.0640 
     11 O1          2.7440   -4.1570   -1.8660 O.3     1     ****   -0.4810 
     12 H1          3.1970   -3.5270   -1.2800 H       1     ****    0.4240 
     13 H2          6.1400   -6.0480    1.0140 H       1     ****    0.0450 
     14 H3          5.5170   -7.6560    1.3900 H       1     ****    0.0600 
     15 H4          6.7720   -7.4370    0.1320 H       1     ****    0.0590 
     16 H5          4.6390   -4.7330   -0.1530 H       1     ****    0.1420 
     17 H6          2.3010   -8.6990   -3.9060 H       1     ****    0.0610 
     18 H7          3.5620   -9.6720   -3.2210 H       1     ****    0.0600 
     19 H8          2.0120   -9.5070   -2.3510 H       1     ****    0.0610 
@<TRIPOS>BOND
     1  2 1 1
     2  3 2 ar
     3  4 3 ar
     4  5 4 ar
     5  6 5 ar
     6  7 2 ar
     7  7 6 ar
     8  8 7 1
     9  9 6 1
    10 10 5 1
    11 11 4 1
    12 12 11 1
    13 13 1 1
    14 14 1 1
    15 15 1 1
    16 16 3 1
    17 17 9 1
    18 18 9 1
    19 19 9 1
@<TRIPOS>SUBSTRUCTURE
1     ****    1
@<TRIPOS>MOLECULE
ZINC00001307
17 17 1 0 0 
SMALL
USER_CHARGES


@<TRIPOS>ATOM
      1 C1          7.0800   -9.0370   -0.0500 C.3     1     ****   -0.1360 
      2 C2          5.6130   -8.9460   -0.2640 C.2     1     ****    0.4560 
      3 N1          4.7230   -8.7240    0.6860 N.2     1     ****   -0.6730 
      4 C3          3.5040   -8.7290    0.0640 C.2     1     ****    0.4250 
      5 C4          3.6520   -8.9670   -1.2790 C.2     1     ****   -0.3630 
      6 N2          5.0010   -9.0830   -1.4970 N.pl3   1     ****   -0.1570 
      7 C5          5.6800   -9.2710   -2.7590 C.3     1     ****    0.0130 
      8 N3          2.6380   -9.0670   -2.2720 N.2     1     ****    0.3610 
      9 O1          2.9030   -9.6760   -3.3140 O.2     1     ****   -0.2290 
     10 O2          1.5490   -8.5470   -1.9990 O.3     1     ****   -0.1930 
     11 H1          7.3130   -8.9960    1.0190 H       1     ****    0.0880 
     12 H2          7.4750   -9.9780   -0.4430 H       1     ****    0.0600 
     13 H3          7.5940   -8.2030   -0.5370 H       1     ****    0.0610 
     14 H4          2.5910   -8.5710    0.6220 H       1     ****    0.0710 
     15 H5          5.2720   -8.5680   -3.4900 H       1     ****    0.0780 
     16 H6          6.7480   -9.0740   -2.6500 H       1     ****    0.0620 
     17 H7          5.5290  -10.3050   -3.0800 H       1     ****    0.0770 
@<TRIPOS>BOND
     1  2 1 1
     2  3 2 2
     3  4 3 1
     4  5 4 2
     5  6 2 1
     6  6 5 1
     7  7 6 1
     8  8 5 1
     9  9 8 2
    10 10 8 1
    11 11 1 1
    12 12 1 1
    13 13 1 1
    14 14 4 1
    15 15 7 1
    16 16 7 1
    17 17 7 1
@<TRIPOS>SUBSTRUCTURE
1     ****    1
@<TRIPOS>MOLECULE
ZINC00001322
27 29 1 0 0 
SMALL
USER_CHARGES


@<TRIPOS>ATOM
      1 C1          1.3600   -2.3950   -0.5870 C.ar    1     ****   -0.0820 
      2 C2          1.3380   -3.7310   -0.1930 C.ar    1     ****   -0.1540 
      3 C3          2.5290   -4.4420    0.0400 C.ar    1     ****    0.0280 
      4 C4          2.4690   -5.7860    0.4370 C.ar    1     ****   -0.1720 
      5 C5          3.6230   -6.5460    0.6830 C.ar    1     ****    0.0370 
      6 C6          3.5010   -7.8900    1.0780 C.ar    1     ****   -0.1810 
      7 C7          4.6250   -8.6730    1.3310 C.ar    1     ****   -0.0670 
      8 C8          5.8900   -8.1220    1.1930 C.ar    1     ****   -0.2040 
      9 C9          6.0240   -6.7890    0.8010 C.ar    1     ****    0.1820 
     10 C10         4.8990   -5.9600    0.5350 C.ar    1     ****   -0.1230 
     11 C11         4.9450   -4.5930    0.1320 C.ar    1     ****    0.2110 
     12 C12         3.7800   -3.8090   -0.1220 C.ar    1     ****   -0.1310 
     13 C13         3.7640   -2.4450   -0.5260 C.ar    1     ****    0.1550 
     14 C14         2.5750   -1.7470   -0.7550 C.ar    1     ****   -0.2400 
     15 O1          4.9550   -1.7820   -0.6990 O.3     1     ****   -0.5380 
     16 O2          6.1990   -4.0350   -0.0090 O.3     1     ****   -0.5370 
     17 O3          7.3170   -6.3390    0.6930 O.3     1     ****   -0.5070 
     18 H1          4.7680   -0.8670   -0.9720 H       1     ****    0.4390 
     19 H2          6.1000   -3.1070   -0.2850 H       1     ****    0.4650 
     20 H3          7.2930   -5.4060    0.4170 H       1     ****    0.4460 
     21 H4          0.4290   -1.8640   -0.7620 H       1     ****    0.1360 
     22 H5          0.3720   -4.2170   -0.0680 H       1     ****    0.1380 
     23 H6          1.4930   -6.2570    0.5570 H       1     ****    0.1400 
     24 H7          2.5180   -8.3440    1.1930 H       1     ****    0.1360 
     25 H8          4.5100   -9.7090    1.6350 H       1     ****    0.1350 
     26 H9          6.7690   -8.7300    1.3890 H       1     ****    0.1520 
     27 H10         2.5860   -0.7060   -1.0620 H       1     ****    0.1360 
@<TRIPOS>BOND
     1  2 1 ar
     2  3 2 ar
     3  4 3 ar
     4  5 4 ar
     5  6 5 ar
     6  7 6 ar
     7  8 7 ar
     8  9 8 ar
     9 10 5 ar
    10 10 9 ar
    11 11 10 ar
    12 12 3 ar
    13 12 11 ar
    14 13 12 ar
    15 14 1 ar
    16 14 13 ar
    17 15 13 1
    18 16 11 1
    19 17 9 1
    20 18 15 1
    21 19 16 1
    22 20 17 1
    23 21 1 1
    24 22 2 1
    25 23 4 1
    26 24 6 1
    27 25 7 1
    28 26 8 1
    29 27 14 1
@<TRIPOS>SUBSTRUCTURE
1     ****    1
@<TRIPOS>MOLECULE
ZINC00001336
28 30 1 0 0 
SMALL
USER_CHARGES


@<TRIPOS>ATOM
      1 C1          8.5950   -6.3800    0.4780 C.3     1     ****   -0.0510 
      2 C2          7.1260   -6.6810    0.4660 C.ar    1     ****   -0.1070 
      3 C3          6.6750   -8.0020    0.5150 C.ar    1     ****   -0.0820 
      4 C4          5.3100   -8.2810    0.4730 C.ar    1     ****   -0.2130 
      5 C5          4.3780   -7.2420    0.3690 C.ar    1     ****    0.1440 
      6 C6          4.8100   -5.9090    0.3030 C.ar    1     ****   -0.0080 
      7 C7          6.1910   -5.6410    0.3470 C.ar    1     ****   -0.0830 
      8 N1          3.9070   -4.8130    0.1900 N.pl3   1     ****    0.3990 
      9 N2          2.5640   -4.9710    0.1380 N.2     1     ****   -0.2050 
     10 C8          2.0990   -3.7180    0.0350 C.ar    1     ****   -0.1250 
     11 C9          0.7710   -3.2630   -0.0560 C.ar    1     ****   -0.0730 
     12 C10         0.6400   -1.8660   -0.1530 C.ar    1     ****   -0.1340 
     13 C11         1.7490   -0.9790   -0.1590 C.ar    1     ****   -0.1240 
     14 C12         3.0850   -1.4120   -0.0690 C.ar    1     ****   -0.0840 
     15 C13         3.2380   -2.8070    0.0290 C.ar    1     ****   -0.1050 
     16 N3          4.3590   -3.5340    0.1280 N.2     1     ****   -0.2600 
     17 O1          3.0500   -7.5690    0.3320 O.3     1     ****   -0.4640 
     18 H1          2.9540   -8.5340    0.3890 H       1     ****    0.4210 
     19 H2          9.1490   -7.1500    1.0250 H       1     ****    0.0440 
     20 H3          8.9760   -6.3320   -0.5470 H       1     ****    0.0490 
     21 H4          8.7940   -5.4240    0.9750 H       1     ****    0.0490 
     22 H5          7.3830   -8.8230    0.5890 H       1     ****    0.1400 
     23 H6          4.9840   -9.3170    0.5190 H       1     ****    0.1400 
     24 H7          6.5670   -4.6210    0.2900 H       1     ****    0.1680 
     25 H8         -0.0840   -3.9270   -0.0530 H       1     ****    0.1480 
     26 H9         -0.3600   -1.4420   -0.2270 H       1     ****    0.1340 
     27 H10         1.5540    0.0900   -0.2380 H       1     ****    0.1340 
     28 H11         3.9200   -0.7230   -0.0750 H       1     ****    0.1470 
@<TRIPOS>BOND
     1  2 1 1
     2  3 2 ar
     3  4 3 ar
     4  5 4 ar
     5  6 5 ar
     6  7 2 ar
     7  7 6 ar
     8  8 6 1
     9  9 8 1
    10 10 9 2
    11 11 10 ar
    12 12 11 ar
    13 13 12 ar
    14 14 13 ar
    15 15 10 ar
    16 15 14 ar
    17 16 8 1
    18 16 15 2
    19 17 5 1
    20 18 17 1
    21 19 1 1
    22 20 1 1
    23 21 1 1
    24 22 3 1
    25 23 4 1
    26 24 7 1
    27 25 11 1
    28 26 12 1
    29 27 13 1
    30 28 14 1
@<TRIPOS>SUBSTRUCTURE
1     ****    1
@<TRIPOS>MOLECULE
ZINC00001337
31 33 1 0 0 
SMALL
USER_CHARGES


@<TRIPOS>ATOM
      1 C1         -2.4140    2.1470    0.9640 C.3     1     ****   -0.1080 
      2 C2         -1.5590    3.1570    1.7180 C.3     1     ****    0.2280 
      3 N1         -1.0700    4.3060    0.9290 N.pl3   1     ****   -0.5370 
      4 C3         -1.2760    4.4760   -0.4310 C.2     1     ****    0.0680 
      5 C4         -0.8710    5.5030   -1.1870 C.2     1     ****   -0.2740 
      6 C5         -0.1200    6.5920   -0.5200 C.2     1     ****    0.5970 
      7 O1          0.2370    7.5960   -1.1250 O.2     1     ****   -0.5530 
      8 C6          0.1720    6.4320    0.9280 C.ar    1     ****   -0.1900 
      9 C7         -0.3110    5.2900    1.6290 C.ar    1     ****    0.1760 
     10 C8         -0.0090    5.1950    3.0040 C.ar    1     ****   -0.1690 
     11 C9          0.7410    6.1880    3.6150 C.ar    1     ****   -0.1140 
     12 C10         1.1940    7.2820    2.9030 C.ar    1     ****    0.0370 
     13 C11         0.9210    7.4360    1.5630 C.ar    1     ****   -0.0610 
     14 O2          1.9040    8.1750    3.6630 O.3     1     ****   -0.3280 
     15 C12         2.1570    7.4540    4.8920 C.3     1     ****    0.1230 
     16 C13         1.1260    6.3340    5.0370 C.3     1     ****   -0.0530 
     17 C14        -1.1720    5.5080   -2.6890 C.2     1     ****    0.9300 
     18 O3         -0.2290    5.9070   -3.4310 O.co2   1     ****   -0.7930 
     19 H1         -2.7450    1.3570    1.6460 H       1     ****    0.0290 
     20 H2         -3.3080    2.6160    0.5410 H       1     ****    0.0590 
     21 H3         -1.8500    1.6690    0.1560 H       1     ****    0.0540 
     22 H4         -2.1680    3.5260    2.5530 H       1     ****    0.0300 
     23 H5         -0.7010    2.6130    2.1350 H       1     ****    0.0280 
     24 H6         -1.8200    3.6650   -0.9000 H       1     ****    0.1750 
     25 H7         -0.3490    4.3650    3.6150 H       1     ****    0.1260 
     26 H8          1.2830    8.3080    1.0290 H       1     ****    0.1720 
     27 H9          3.1760    7.0490    4.8370 H       1     ****    0.0450 
     28 H10         2.1160    8.1510    5.7360 H       1     ****    0.0440 
     29 H11         0.2670    6.6620    5.6300 H       1     ****    0.0530 
     30 H12         1.5630    5.4320    5.4730 H       1     ****    0.0530 
     31 O4         -2.3230    5.1000   -3.0180 O.co2   1     ****   -0.8480 
@<TRIPOS>BOND
     1  2 1 1
     2  3 2 1
     3  4 3 1
     4  5 4 2
     5  6 5 1
     6  7 6 2
     7  8 6 1
     8  9 3 1
     9  9 8 ar
    10 10 9 ar
    11 11 10 ar
    12 12 11 ar
    13 13 8 ar
    14 13 12 ar
    15 14 12 1
    16 15 14 1
    17 16 11 1
    18 16 15 1
    19 17 5 1
    20 18 17 1
    21 19 1 1
    22 20 1 1
    23 21 1 1
    24 22 2 1
    25 23 2 1
    26 24 4 1
    27 25 10 1
    28 26 13 1
    29 27 15 1
    30 28 15 1
    31 29 16 1
    32 30 16 1
    33 31 17 2
@<TRIPOS>SUBSTRUCTURE
1     ****    1
@<TRIPOS>MOLECULE
ZINC00001371
44 47 1 0 0 
SMALL
USER_CHARGES


@<TRIPOS>ATOM
      1 C1         -0.6700   -8.1950   -3.0120 C.3     1     ****   -0.0850 
      2 C2         -1.5720   -7.2030   -2.2310 C.3     1     ****   -0.0880 
      3 C3         -0.8960   -6.8880   -0.8840 C.3     1     ****   -0.0680 
      4 C4          0.4060   -6.0770   -1.0630 C.3     1     ****   -0.0680 
      5 C5          0.2110   -4.8040   -1.9390 C.3     1     ****   -0.0090 
      6 C6          1.5250   -4.0790   -2.2250 C.ar    1     ****   -0.1000 
      7 C7          2.5660   -4.0470   -1.2790 C.ar    1     ****   -0.0970 
      8 C8          3.7460   -3.3380   -1.5170 C.ar    1     ****   -0.1590 
      9 C9          3.8950   -2.6320   -2.7010 C.ar    1     ****    0.1230 
     10 C10         2.8750   -2.6190   -3.6470 C.ar    1     ****   -0.2170 
     11 C11         1.6810   -3.3250   -3.4120 C.ar    1     ****   -0.0320 
     12 C12         0.6220   -3.2800   -4.4890 C.3     1     ****   -0.0380 
     13 C13        -0.7210   -3.8720   -4.0690 C.3     1     ****   -0.0730 
     14 C14        -0.4860   -5.1650   -3.2750 C.3     1     ****   -0.0490 
     15 C15        -1.8040   -5.8740   -2.9480 C.3     1     ****   -0.0600 
     16 C16        -2.7490   -6.2390   -4.0920 C.3     1     ****   -0.0710 
     17 C17        -3.6110   -7.3890   -3.5090 C.3     1     ****   -0.0780 
     18 C18        -2.9860   -7.7840   -2.1430 C.3     1     ****    0.1440 
     19 O1         -3.7250   -7.1440   -1.1110 O.3     1     ****   -0.5970 
     20 O2          5.0600   -1.9510   -2.9080 O.3     1     ****   -0.4990 
     21 H1         -3.4420   -7.5320   -0.2660 H       1     ****    0.3990 
     22 H2          5.0120   -1.5100   -3.7730 H       1     ****    0.4170 
     23 H3         -1.0800   -8.4420   -3.9970 H       1     ****    0.0380 
     24 H4          0.3460   -7.8270   -3.1750 H       1     ****    0.0430 
     25 H5         -0.5820   -9.1380   -2.4590 H       1     ****    0.0320 
     26 H6         -1.5630   -6.2960   -0.2450 H       1     ****    0.0450 
     27 H7         -0.6800   -7.8130   -0.3350 H       1     ****    0.0390 
     28 H8          0.7470   -5.7970   -0.0600 H       1     ****    0.0390 
     29 H9          1.1910   -6.7150   -1.4870 H       1     ****    0.0480 
     30 H10        -0.4420   -4.1430   -1.3380 H       1     ****    0.0570 
     31 H11         2.4800   -4.5670   -0.3300 H       1     ****    0.1340 
     32 H12         4.5360   -3.3380   -0.7720 H       1     ****    0.1490 
     33 H13         2.9970   -2.0600   -4.5720 H       1     ****    0.1320 
     34 H14         0.4640   -2.2440   -4.8120 H       1     ****    0.0510 
     35 H15         1.0010   -3.8410   -5.3530 H       1     ****    0.0510 
     36 H16        -1.2720   -3.1480   -3.4550 H       1     ****    0.0470 
     37 H17        -1.3230   -4.0540   -4.9660 H       1     ****    0.0450 
     38 H18         0.1530   -5.7940   -3.9160 H       1     ****    0.0590 
     39 H19        -2.3760   -5.1510   -2.3360 H       1     ****    0.0600 
     40 H20        -3.3730   -5.3940   -4.3990 H       1     ****    0.0460 
     41 H21        -2.2000   -6.5870   -4.9740 H       1     ****    0.0410 
     42 H22        -4.6530   -7.0700   -3.3980 H       1     ****    0.0670 
     43 H23        -3.5870   -8.2370   -4.2020 H       1     ****    0.0450 
     44 H24        -3.0380   -8.8720   -2.0010 H       1     ****    0.0370 
@<TRIPOS>BOND
     1  2 1 1
     2  3 2 1
     3  4 3 1
     4  5 4 1
     5  6 5 1
     6  7 6 ar
     7  8 7 ar
     8  9 8 ar
     9 10 9 ar
    10 11 6 ar
    11 11 10 ar
    12 12 11 1
    13 13 12 1
    14 14 5 1
    15 14 13 1
    16 15 2 1
    17 15 14 1
    18 16 15 1
    19 17 16 1
    20 18 2 1
    21 18 17 1
    22 19 18 1
    23 20 9 1
    24 21 19 1
    25 22 20 1
    26 23 1 1
    27 24 1 1
    28 25 1 1
    29 26 3 1
    30 27 3 1
    31 28 4 1
    32 29 4 1
    33 30 5 1
    34 31 7 1
    35 32 8 1
    36 33 10 1
    37 34 12 1
    38 35 12 1
    39 36 13 1
    40 37 13 1
    41 38 14 1
    42 39 15 1
    43 40 16 1
    44 41 16 1
    45 42 17 1
    46 43 17 1
    47 44 18 1
@<TRIPOS>SUBSTRUCTURE
1     ****    1
@<TRIPOS>MOLECULE
ZINC00001398
51 54 1 0 0 
SMALL
USER_CHARGES


@<TRIPOS>ATOM
      1 C1          2.6940    8.0760    5.4530 C.3     1     ****   -0.0880 
      2 C2          1.2500    8.4190    5.9110 C.3     1     ****   -0.0380 
      3 C3          0.5150    9.1020    4.7280 C.3     1     ****   -0.0700 
      4 C4          0.3720    8.2190    3.4860 C.3     1     ****   -0.0750 
      5 C5          0.1330    6.7410    3.8070 C.3     1     ****    0.1460 
      6 C6         -0.4310    6.5740    5.2100 C.3     1     ****   -0.1100 
      7 C7          0.5000    7.0770    6.3280 C.3     1     ****   -0.0490 
      8 C8         -0.3590    7.2690    7.6150 C.3     1     ****   -0.0730 
      9 C9          0.4240    7.7700    8.8370 C.3     1     ****   -0.0720 
     10 C10         1.6420    8.5900    8.4040 C.3     1     ****   -0.0440 
     11 C11         1.2760    9.3970    7.1400 C.3     1     ****   -0.0540 
     12 C12         2.2320   10.6040    6.9880 C.3     1     ****   -0.0720 
     13 C13         2.0810   11.6010    8.1660 C.3     1     ****   -0.0600 
     14 C14         1.6520   10.9400    9.4950 C.3     1     ****   -0.1460 
     15 C15         2.2180    9.5100    9.4940 C.3     1     ****   -0.0570 
     16 C16         2.1800    9.1100   10.9690 C.3     1     ****   -0.0730 
     17 C17         2.7070   10.3820   11.6730 C.3     1     ****   -0.1890 
     18 C18         2.3200   11.5070   10.7170 C.2     1     ****    0.5740 
     19 O1          2.5080   12.6950   10.9390 O.2     1     ****   -0.5210 
     20 C19         0.1280   11.0550    9.6920 C.3     1     ****   -0.0830 
     21 O2         -0.7920    6.2190    2.8680 O.3     1     ****   -0.6030 
     22 H1         -0.9100    5.2740    3.0640 H       1     ****    0.3970 
     23 H2          2.7140    7.2850    4.6990 H       1     ****    0.0360 
     24 H3          3.1880    8.9480    5.0090 H       1     ****    0.0380 
     25 H4          3.3200    7.7270    6.2790 H       1     ****    0.0340 
     26 H5         -0.4900    9.4000    5.0570 H       1     ****    0.0440 
     27 H6          1.0190   10.0290    4.4310 H       1     ****    0.0440 
     28 H7         -0.4370    8.6190    2.8600 H       1     ****    0.0660 
     29 H8          1.2760    8.3000    2.8700 H       1     ****    0.0450 
     30 H9          1.0910    6.2070    3.7230 H       1     ****    0.0310 
     31 H10        -1.4070    7.0770    5.2590 H       1     ****    0.0560 
     32 H11        -0.6590    5.5150    5.3880 H       1     ****    0.0360 
     33 H12         1.2420    6.3010    6.5870 H       1     ****    0.0480 
     34 H13        -1.1650    7.9850    7.4030 H       1     ****    0.0410 
     35 H14        -0.8560    6.3260    7.8750 H       1     ****    0.0400 
     36 H15        -0.2580    8.3350    9.4800 H       1     ****    0.0440 
     37 H16         0.7620    6.9110    9.4300 H       1     ****    0.0380 
     38 H17         2.4000    7.8170    8.1830 H       1     ****    0.0490 
     39 H18         0.2870    9.8690    7.2400 H       1     ****    0.0530 
     40 H19         3.2740   10.2620    6.9570 H       1     ****    0.0420 
     41 H20         2.0520   11.1440    6.0530 H       1     ****    0.0450 
     42 H21         3.0340   12.1320    8.2860 H       1     ****    0.0550 
     43 H22         1.3530   12.3720    7.8830 H       1     ****    0.0490 
     44 H23         3.3050    9.5040    9.2620 H       1     ****    0.0480 
     45 H24         1.1660    8.8800   11.3120 H       1     ****    0.0500 
     46 H25         2.8120    8.2440   11.1840 H       1     ****    0.0500 
     47 H26         2.2380   10.5210   12.6500 H       1     ****    0.0750 
     48 H27         3.7960   10.3560   11.7630 H       1     ****    0.0740 
     49 H28        -0.1590   12.1120    9.7660 H       1     ****    0.0460 
     50 H29        -0.4720   10.6250    8.8920 H       1     ****    0.0480 
     51 H30        -0.1960   10.5910   10.6300 H       1     ****    0.0360 
@<TRIPOS>BOND
     1  2 1 1
     2  3 2 1
     3  4 3 1
     4  5 4 1
     5  6 5 1
     6  7 2 1
     7  7 6 1
     8  8 7 1
     9  9 8 1
    10 10 9 1
    11 11 2 1
    12 11 10 1
    13 12 11 1
    14 13 12 1
    15 14 13 1
    16 15 10 1
    17 15 14 1
    18 16 15 1
    19 17 16 1
    20 18 14 1
    21 18 17 1
    22 19 18 2
    23 20 14 1
    24 21 5 1
    25 22 21 1
    26 23 1 1
    27 24 1 1
    28 25 1 1
    29 26 3 1
    30 27 3 1
    31 28 4 1
    32 29 4 1
    33 30 5 1
    34 31 6 1
    35 32 6 1
    36 33 7 1
    37 34 8 1
    38 35 8 1
    39 36 9 1
    40 37 9 1
    41 38 10 1
    42 39 11 1
    43 40 12 1
    44 41 12 1
    45 42 13 1
    46 43 13 1
    47 44 15 1
    48 45 16 1
    49 46 16 1
    50 47 17 1
    51 48 17 1
    52 49 20 1
    53 50 20 1
    54 51 20 1
@<TRIPOS>SUBSTRUCTURE
1     ****    1
@<TRIPOS>MOLECULE
ZINC00001416
33 35 1 0 0 
SMALL
USER_CHARGES


@<TRIPOS>ATOM
      1 C1          9.2060    4.4940    3.3160 C.ar    1     ****   -0.1240 
      2 C2          7.8750    4.7480    3.6310 C.ar    1     ****   -0.1310 
      3 C3          6.8530    4.0240    3.0110 C.ar    1     ****   -0.1150 
      4 C4          7.1440    3.0340    2.0580 C.ar    1     ****   -0.0440 
      5 C5          8.5030    2.7620    1.7720 C.ar    1     ****   -0.0680 
      6 C6          9.5210    3.5050    2.3880 C.ar    1     ****   -0.1250 
      7 C7          8.8640    1.6940    0.7650 C.3     1     ****   -0.0620 
      8 C8          7.8630    0.5460    0.8290 C.3     1     ****    0.1880 
      9 N1          6.5180    1.0710    0.7510 N.3     1     ****   -0.7110 
     10 C9          6.0900    2.2390    1.3580 C.2     1     ****    0.1120 
     11 C10         4.8140    2.6610    1.2850 C.2     1     ****   -0.0850 
     12 O1          3.8360    1.9350    0.6350 O.3     1     ****   -0.2510 
     13 C11         2.6160    2.5420    0.4590 C.ar    1     ****    0.1070 
     14 C12         2.4870    3.7600   -0.2150 C.ar    1     ****   -0.1640 
     15 C13         1.2210    4.3160   -0.4030 C.ar    1     ****   -0.1040 
     16 C14         0.0930    3.6430    0.0710 C.ar    1     ****   -0.0020 
     17 C15         0.2200    2.4170    0.7250 C.ar    1     ****   -0.1060 
     18 C16         1.4850    1.8610    0.9130 C.ar    1     ****   -0.1320 
     19 CL1        -1.4690    4.3290   -0.1630 Cl      1     ****   -0.0940 
     20 H1          9.9970    5.0620    3.7960 H       1     ****    0.1330 
     21 H2          7.6280    5.5130    4.3620 H       1     ****    0.1340 
     22 H3          5.8300    4.2520    3.2980 H       1     ****    0.1360 
     23 H4         10.5640    3.3110    2.1520 H       1     ****    0.1330 
     24 H5          8.8640    2.1480   -0.2330 H       1     ****    0.0570 
     25 H6          9.8700    1.3030    0.9560 H       1     ****    0.0590 
     26 H7          8.0380   -0.1560    0.0070 H       1     ****    0.0420 
     27 H8          7.9760   -0.0100    1.7680 H       1     ****    0.0570 
     28 H9          5.8110    0.5190    0.2760 H       1     ****    0.4010 
     29 H10         4.4500    3.5780    1.7250 H       1     ****    0.1550 
     30 H11         3.3610    4.2780   -0.6010 H       1     ****    0.1490 
     31 H12         1.1270    5.2650   -0.9220 H       1     ****    0.1490 
     32 H13        -0.6560    1.8860    1.0880 H       1     ****    0.1510 
     33 H14         1.5850    0.9030    1.4160 H       1     ****    0.1570 
@<TRIPOS>BOND
     1  2 1 ar
     2  3 2 ar
     3  4 3 ar
     4  5 4 ar
     5  6 1 ar
     6  6 5 ar
     7  7 5 1
     8  8 7 1
     9  9 8 1
    10 10 4 1
    11 10 9 1
    12 11 10 2
    13 12 11 1
    14 13 12 1
    15 14 13 ar
    16 15 14 ar
    17 16 15 ar
    18 17 16 ar
    19 18 13 ar
    20 18 17 ar
    21 19 16 1
    22 20 1 1
    23 21 2 1
    24 22 3 1
    25 23 6 1
    26 24 7 1
    27 25 7 1
    28 26 8 1
    29 27 8 1
    30 28 9 1
    31 29 11 1
    32 30 14 1
    33 31 15 1
    34 32 17 1
    35 33 18 1
@<TRIPOS>SUBSTRUCTURE
1     ****    1
@<TRIPOS>MOLECULE
ZINC00001453
32 34 1 0 0 
SMALL
USER_CHARGES


@<TRIPOS>ATOM
      1 C1          6.3480  -10.1830    2.0410 C.ar    1     ****   -0.1190 
      2 C2          6.5660   -9.3930    0.9150 C.ar    1     ****   -0.1460 
      3 C3          6.0610   -8.0910    0.8640 C.ar    1     ****   -0.1010 
      4 C4          5.3250   -7.5620    1.9360 C.ar    1     ****   -0.0670 
      5 C5          5.1240   -8.3700    3.0680 C.ar    1     ****   -0.0730 
      6 C6          5.6290   -9.6710    3.1180 C.ar    1     ****   -0.1360 
      7 C7          4.7960   -6.1830    1.9090 C.2     1     ****    0.2020 
      8 C8          4.2630   -5.6480    0.8000 C.2     1     ****   -0.3410 
      9 C9          3.7470   -4.2680    0.8420 C.2     1     ****    0.5970 
     10 O1          3.2530   -3.7450   -0.1480 O.2     1     ****   -0.5890 
     11 C10         3.8590   -3.5660    2.1300 C.ar    1     ****   -0.2200 
     12 C11         3.4050   -2.2520    2.2570 C.ar    1     ****   -0.0870 
     13 C12         3.5220   -1.6010    3.4830 C.ar    1     ****   -0.1660 
     14 C13         4.0860   -2.2620    4.5760 C.ar    1     ****   -0.0800 
     15 C14         4.5380   -3.5870    4.4620 C.ar    1     ****   -0.0220 
     16 C15         4.4250   -4.2320    3.2190 C.ar    1     ****    0.1160 
     17 O2          4.8850   -5.5240    3.1240 O.3     1     ****   -0.2070 
     18 C16         5.1550   -4.2640    5.6590 C.3     1     ****   -0.1820 
     19 C17         6.6700   -4.0940    5.6240 C.2     1     ****    0.9240 
     20 O3          7.0990   -2.9900    6.0650 O.co2   1     ****   -0.8400 
     21 H1          6.7420  -11.1950    2.0810 H       1     ****    0.1240 
     22 H2          7.1330   -9.7880    0.0770 H       1     ****    0.1250 
     23 H3          6.2640   -7.4940   -0.0230 H       1     ****    0.1370 
     24 H4          4.5650   -7.9960    3.9240 H       1     ****    0.1630 
     25 H5          5.4610  -10.2830    3.9990 H       1     ****    0.1350 
     26 H6          4.1790   -6.1800   -0.1410 H       1     ****    0.1510 
     27 H7          2.9650   -1.7240    1.4160 H       1     ****    0.1390 
     28 H8          3.1770   -0.5770    3.5900 H       1     ****    0.1220 
     29 H9          4.1750   -1.7350    5.5230 H       1     ****    0.1770 
     30 H10         4.7600   -3.8350    6.5880 H       1     ****    0.0400 
     31 H11         4.8840   -5.3260    5.6840 H       1     ****    0.0500 
     32 O4          7.3130   -5.0860    5.1780 O.co2   1     ****   -0.8230 
@<TRIPOS>BOND
     1  2 1 ar
     2  3 2 ar
     3  4 3 ar
     4  5 4 ar
     5  6 1 ar
     6  6 5 ar
     7  7 4 1
     8  8 7 2
     9  9 8 1
    10 10 9 2
    11 11 9 1
    12 12 11 ar
    13 13 12 ar
    14 14 13 ar
    15 15 14 ar
    16 16 11 ar
    17 16 15 ar
    18 17 7 1
    19 17 16 1
    20 18 15 1
    21 19 18 1
    22 20 19 1
    23 21 1 1
    24 22 2 1
    25 23 3 1
    26 24 5 1
    27 25 6 1
    28 26 8 1
    29 27 12 1
    30 28 13 1
    31 29 14 1
    32 30 18 1
    33 31 18 1
    34 32 19 2
@<TRIPOS>SUBSTRUCTURE
1     ****    1
@<TRIPOS>MOLECULE
ZINC00001470
51 54 1 0 0 
SMALL
USER_CHARGES


@<TRIPOS>ATOM
      1 C1         -3.4110   -3.9140   -0.9680 C.3     1     ****   -0.0850 
      2 C2         -3.8220   -3.5510   -2.4230 C.3     1     ****   -0.0790 
      3 C3         -5.3050   -3.0720   -2.4360 C.3     1     ****   -0.0630 
      4 C4         -5.4790   -1.5330   -2.3960 C.3     1     ****   -0.0700 
      5 C5         -4.3300   -0.8820   -1.6040 C.3     1     ****   -0.0540 
      6 C6         -3.0180   -1.0630   -2.3930 C.3     1     ****   -0.0470 
      7 C7         -2.9510   -2.4570   -3.0650 C.3     1     ****   -0.0560 
      8 C8         -1.6090   -3.1630   -3.2730 C.3     1     ****   -0.0710 
      9 C9         -2.0030   -4.6250   -3.6030 C.3     1     ****   -0.0800 
     10 C10        -3.5220   -4.7650   -3.3150 C.3     1     ****    0.1410 
     11 O1         -4.2120   -4.6620   -4.5540 O.3     1     ****   -0.5950 
     12 C11        -1.8450   -0.7370   -1.4610 C.3     1     ****   -0.0720 
     13 C12        -1.9590    0.7260   -1.0030 C.3     1     ****   -0.0730 
     14 C13        -3.3230    1.0660   -0.3550 C.3     1     ****   -0.0560 
     15 C14        -4.5360    0.6300   -1.2550 C.3     1     ****   -0.0350 
     16 C15        -5.8470    0.8190   -0.4240 C.3     1     ****   -0.1010 
     17 C16        -5.7530    1.8240    0.7280 C.3     1     ****    0.0780 
     18 C17        -4.8000    2.9500    0.4190 C.2     1     ****    0.5450 
     19 O2         -5.1080    4.1300    0.5810 O.2     1     ****   -0.5030 
     20 C18        -3.4090    2.5610   -0.0340 C.3     1     ****   -0.1810 
     21 F1         -7.0010    2.3140    0.9570 F       1     ****   -0.2230 
     22 C19        -4.6740    1.5010   -2.5320 C.3     1     ****   -0.0910 
     23 H1         -5.0900   -5.0620   -4.4330 H       1     ****    0.3990 
     24 H2         -2.3790   -4.2740   -0.9060 H       1     ****    0.0370 
     25 H3         -3.4950   -3.1060   -0.2460 H       1     ****    0.0390 
     26 H4         -4.0440   -4.7310   -0.5980 H       1     ****    0.0310 
     27 H5         -5.8490   -3.4310   -3.3150 H       1     ****    0.0410 
     28 H6         -5.8350   -3.5060   -1.5780 H       1     ****    0.0390 
     29 H7         -5.4940   -1.1540   -3.4260 H       1     ****    0.0460 
     30 H8         -6.4580   -1.3060   -1.9640 H       1     ****    0.0420 
     31 H9         -4.3170   -1.4390   -0.6570 H       1     ****    0.0500 
     32 H10        -2.9230   -0.3140   -3.1990 H       1     ****    0.0500 
     33 H11        -3.2900   -2.2330   -4.0980 H       1     ****    0.0590 
     34 H12        -1.0320   -2.7110   -4.0860 H       1     ****    0.0470 
     35 H13        -0.9850   -3.1480   -2.3740 H       1     ****    0.0410 
     36 H14        -1.7660   -4.8610   -4.6460 H       1     ****    0.0680 
     37 H15        -1.4260   -5.3030   -2.9630 H       1     ****    0.0450 
     38 H16        -3.7370   -5.7420   -2.8620 H       1     ****    0.0360 
     39 H17        -1.8340   -1.4000   -0.5890 H       1     ****    0.0440 
     40 H18        -0.8890   -0.8580   -1.9800 H       1     ****    0.0470 
     41 H19        -1.1560    0.9340   -0.2840 H       1     ****    0.0420 
     42 H20        -1.7750    1.3850   -1.8610 H       1     ****    0.0450 
     43 H21        -3.3290    0.4880    0.5890 H       1     ****    0.0480 
     44 H22        -6.6820    1.0960   -1.0820 H       1     ****    0.0700 
     45 H23        -6.1530   -0.1350    0.0260 H       1     ****    0.0570 
     46 H24        -5.3930    1.3090    1.6320 H       1     ****    0.0660 
     47 H25        -2.7100    2.8060    0.7740 H       1     ****    0.0760 
     48 H26        -3.1500    3.1720   -0.9050 H       1     ****    0.0820 
     49 H27        -5.0020    2.5190   -2.2940 H       1     ****    0.0410 
     50 H28        -3.7360    1.6020   -3.0850 H       1     ****    0.0420 
     51 H29        -5.4240    1.0940   -3.2180 H       1     ****    0.0430 
@<TRIPOS>BOND
     1  2 1 1
     2  3 2 1
     3  4 3 1
     4  5 4 1
     5  6 5 1
     6  7 2 1
     7  7 6 1
     8  8 7 1
     9  9 8 1
    10 10 2 1
    11 10 9 1
    12 11 10 1
    13 12 6 1
    14 13 12 1
    15 14 13 1
    16 15 5 1
    17 15 14 1
    18 16 15 1
    19 17 16 1
    20 18 17 1
    21 19 18 2
    22 20 14 1
    23 20 18 1
    24 21 17 1
    25 22 15 1
    26 23 11 1
    27 24 1 1
    28 25 1 1
    29 26 1 1
    30 27 3 1
    31 28 3 1
    32 29 4 1
    33 30 4 1
    34 31 5 1
    35 32 6 1
    36 33 7 1
    37 34 8 1
    38 35 8 1
    39 36 9 1
    40 37 9 1
    41 38 10 1
    42 39 12 1
    43 40 12 1
    44 41 13 1
    45 42 13 1
    46 43 14 1
    47 44 16 1
    48 45 16 1
    49 46 17 1
    50 47 20 1
    51 48 20 1
    52 49 22 1
    53 50 22 1
    54 51 22 1
@<TRIPOS>SUBSTRUCTURE
1     ****    1
@<TRIPOS>MOLECULE
ZINC00001507
16 16 1 0 0 
SMALL
USER_CHARGES


@<TRIPOS>ATOM
      1 C1          5.3690   -5.9570   -0.4000 C.ar    1     ****   -0.1520 
      2 C2          4.3310   -5.1690   -0.8910 C.ar    1     ****   -0.2200 
      3 C3          3.3250   -5.7450   -1.6740 C.ar    1     ****    0.1100 
      4 C4          3.3370   -7.1160   -1.9740 C.ar    1     ****   -0.0940 
      5 C5          4.3950   -7.8960   -1.4780 C.ar    1     ****   -0.1610 
      6 C6          5.3960   -7.3150   -0.6990 C.ar    1     ****    0.0570 
      7 O1          6.4290   -8.0630   -0.2070 O.3     1     ****   -0.5280 
      8 C7          2.2680   -7.7730   -2.8020 C.2     1     ****    0.9200 
      9 O2          1.0670   -7.4120   -2.6030 O.co2   1     ****   -0.8040 
     10 O3          2.3300   -4.9480   -2.1730 O.3     1     ****   -0.4620 
     11 H1          6.3110   -8.9820   -0.5030 H       1     ****    0.4080 
     12 H2          2.4640   -4.0390   -1.8580 H       1     ****    0.3830 
     13 H3          6.1500   -5.5100    0.2070 H       1     ****    0.1220 
     14 H4          4.3180   -4.1070   -0.6620 H       1     ****    0.1080 
     15 H5          4.4300   -8.9610   -1.6970 H       1     ****    0.1500 
     16 O4          2.6530   -8.6590   -3.6270 O.co2   1     ****   -0.8370 
@<TRIPOS>BOND
     1  2 1 ar
     2  3 2 ar
     3  4 3 ar
     4  5 4 ar
     5  6 1 ar
     6  6 5 ar
     7  7 6 1
     8  8 4 1
     9  9 8 1
    10 10 3 1
    11 11 7 1
    12 12 10 1
    13 13 1 1
    14 14 2 1
    15 15 5 1
    16 16 8 2
@<TRIPOS>SUBSTRUCTURE
1     ****    1
@<TRIPOS>MOLECULE
ZINC00001521
17 17 1 0 0 
SMALL
USER_CHARGES


@<TRIPOS>ATOM
      1 C1          4.6320   -5.3520    0.7780 C.3     1     ****    0.1110 
      2 O1          4.1850   -6.6080    0.2830 O.3     1     ****   -0.3040 
      3 C2          2.9410   -6.6460   -0.2890 C.ar    1     ****    0.1010 
      4 C3          2.0810   -5.5520   -0.4230 C.ar    1     ****   -0.1760 
      5 C4          0.8280   -5.7070   -1.0250 C.ar    1     ****   -0.1300 
      6 C5          0.4240   -6.9540   -1.4980 C.ar    1     ****   -0.1250 
      7 C6          1.2700   -8.0530   -1.3710 C.ar    1     ****   -0.1880 
      8 C7          2.5200   -7.8940   -0.7690 C.ar    1     ****    0.1010 
      9 O2          3.3560   -8.9720   -0.6420 O.3     1     ****   -0.4760 
     10 H1          2.9200   -9.7530   -1.0210 H       1     ****    0.4140 
     11 H2          5.6330   -5.4950    1.1970 H       1     ****    0.0690 
     12 H3          4.7120   -4.6160   -0.0290 H       1     ****    0.0310 
     13 H4          3.9840   -4.9910    1.5820 H       1     ****    0.0310 
     14 H5          2.3520   -4.5620   -0.0700 H       1     ****    0.1390 
     15 H6          0.1670   -4.8510   -1.1250 H       1     ****    0.1340 
     16 H7         -0.5500   -7.0680   -1.9650 H       1     ****    0.1340 
     17 H8          0.9480   -9.0210   -1.7420 H       1     ****    0.1350 
@<TRIPOS>BOND
     1  2 1 1
     2  3 2 1
     3  4 3 ar
     4  5 4 ar
     5  6 5 ar
     6  7 6 ar
     7  8 3 ar
     8  8 7 ar
     9  9 8 1
    10 10 9 1
    11 11 1 1
    12 12 1 1
    13 13 1 1
    14 14 4 1
    15 15 5 1
    16 16 6 1
    17 17 7 1
@<TRIPOS>SUBSTRUCTURE
1     ****    1
@<TRIPOS>MOLECULE
ZINC00001548
18 18 1 0 0 
SMALL
USER_CHARGES


@<TRIPOS>ATOM
      1 C1          4.5090   -8.5680    0.9900 C.3     1     ****   -0.0210 
      2 C2          4.4240   -8.0680   -0.4250 C.ar    1     ****   -0.1630 
      3 C3          5.0560   -8.7740   -1.4530 C.ar    1     ****   -0.1150 
      4 C4          4.9830   -8.3190   -2.7660 C.ar    1     ****   -0.2090 
      5 C5          4.2770   -7.1530   -3.0660 C.ar    1     ****   -0.0700 
      6 C6          3.6280   -6.4140   -2.0610 C.ar    1     ****   -0.2130 
      7 C7          3.7160   -6.8940   -0.7390 C.ar    1     ****    0.1790 
      8 O1          3.1150   -6.2400    0.3090 O.3     1     ****   -0.5530 
      9 C8          2.8740   -5.1550   -2.4330 C.2     1     ****    0.9170 
     10 O2          2.3020   -4.5180   -1.4930 O.co2   1     ****   -0.8580 
     11 H1          2.6620   -5.4510   -0.0420 H       1     ****    0.4820 
     12 H2          5.0960   -9.4900    1.0570 H       1     ****    0.0100 
     13 H3          4.9920   -7.8200    1.6270 H       1     ****    0.0350 
     14 H4          3.5080   -8.7830    1.3760 H       1     ****    0.0350 
     15 H5          5.6110   -9.6850   -1.2400 H       1     ****    0.1020 
     16 H6          5.4760   -8.8720   -3.5610 H       1     ****    0.1050 
     17 H7          4.2410   -6.8270   -4.1040 H       1     ****    0.1510 
     18 O3          2.8630   -4.8190   -3.6590 O.co2   1     ****   -0.8120 
@<TRIPOS>BOND
     1  2 1 1
     2  3 2 ar
     3  4 3 ar
     4  5 4 ar
     5  6 5 ar
     6  7 2 ar
     7  7 6 ar
     8  8 7 1
     9  9 6 1
    10 10 9 1
    11 11 8 1
    12 12 1 1
    13 13 1 1
    14 14 1 1
    15 15 3 1
    16 16 4 1
    17 17 5 1
    18 18 9 2
@<TRIPOS>SUBSTRUCTURE
1     ****    1
@<TRIPOS>MOLECULE
ZINC00001590
17 17 1 0 0 
SMALL
USER_CHARGES


@<TRIPOS>ATOM
      1 C1          5.4170   -8.8440   -0.2760 C.ar    1     ****   -0.1950 
      2 C2          5.8550   -9.9160    0.4840 C.ar    1     ****    0.3880 
      3 N1          5.3290  -11.1590    0.4130 N.ar    1     ****   -0.6450 
      4 C3          4.3130  -11.3320   -0.4590 C.ar    1     ****    0.3870 
      5 C4          3.8000  -10.3290   -1.2690 C.ar    1     ****   -0.2160 
      6 C5          4.3730   -9.0600   -1.1780 C.ar    1     ****   -0.1060 
      7 C6          3.8910   -7.9130   -1.9910 C.2     1     ****    0.6320 
      8 O1          4.0440   -6.7690   -1.5680 O.2     1     ****   -0.5890 
      9 N2          3.3080   -8.2330   -3.2060 N.am    1     ****   -0.4340 
     10 N3          2.8280   -7.2160   -4.0210 N.3     1     ****   -0.6300 
     11 H1          3.2440   -9.1820   -3.5610 H       1     ****    0.3270 
     12 H2          2.1450   -6.6880   -3.4770 H       1     ****    0.3580 
     13 H3          3.6020   -6.5730   -4.1910 H       1     ****    0.3450 
     14 H4          5.8890   -7.8730   -0.1660 H       1     ****    0.1680 
     15 H5          6.6670   -9.7990    1.1950 H       1     ****    0.0310 
     16 H6          3.9000  -12.3350   -0.4900 H       1     ****    0.0290 
     17 H7          2.9660  -10.5510   -1.9240 H       1     ****    0.1530 
@<TRIPOS>BOND
     1  2 1 ar
     2  3 2 ar
     3  4 3 ar
     4  5 4 ar
     5  6 1 ar
     6  6 5 ar
     7  7 6 1
     8  8 7 2
     9  9 7 1
    10 10 9 1
    11 11 9 1
    12 12 10 1
    13 13 10 1
    14 14 1 1
    15 15 2 1
    16 16 4 1
    17 17 5 1
@<TRIPOS>SUBSTRUCTURE
1     ****    1
@<TRIPOS>MOLECULE
ZINC00001684
17 17 1 0 0 
SMALL
USER_CHARGES


@<TRIPOS>ATOM
      1 C1          6.9770   -7.3470    0.0780 C.3     1     ****    0.1140 
      2 O1          5.6880   -7.2410   -0.5150 O.3     1     ****   -0.3280 
      3 C2          4.9810   -8.4050   -0.6650 C.ar    1     ****    0.0890 
      4 C3          5.4130   -9.6800   -0.2890 C.ar    1     ****   -0.1680 
      5 C4          4.5910  -10.7900   -0.4980 C.ar    1     ****   -0.1240 
      6 C5          3.3390  -10.6240   -1.0830 C.ar    1     ****    0.0900 
      7 C6          2.8950   -9.3610   -1.4630 C.ar    1     ****   -0.1800 
      8 C7          3.7180   -8.2540   -1.2520 C.ar    1     ****   -0.1180 
      9 O2          2.5620  -11.7320   -1.2720 O.3     1     ****   -0.4990 
     10 H1          1.7260  -11.4570   -1.6860 H       1     ****    0.4170 
     11 H2          7.4060   -6.3420    0.1260 H       1     ****    0.0660 
     12 H3          6.9110   -7.7300    1.1020 H       1     ****    0.0320 
     13 H4          7.6440   -7.9640   -0.5340 H       1     ****    0.0320 
     14 H5          6.3830   -9.8450    0.1700 H       1     ****    0.1400 
     15 H6          4.9330  -11.7780   -0.2030 H       1     ****    0.1510 
     16 H7          1.9190   -9.2240   -1.9200 H       1     ****    0.1360 
     17 H8          3.3700   -7.2680   -1.5500 H       1     ****    0.1510 
@<TRIPOS>BOND
     1  2 1 1
     2  3 2 1
     3  4 3 ar
     4  5 4 ar
     5  6 5 ar
     6  7 6 ar
     7  8 3 ar
     8  8 7 ar
     9  9 6 1
    10 10 9 1
    11 11 1 1
    12 12 1 1
    13 13 1 1
    14 14 4 1
    15 15 5 1
    16 16 7 1
    17 17 8 1
@<TRIPOS>SUBSTRUCTURE
1     ****    1
@<TRIPOS>MOLECULE
ZINC00001688
17 17 1 0 0 
SMALL
USER_CHARGES


@<TRIPOS>ATOM
      1 C1          5.4020   -5.9520   -0.4670 C.ar    1     ****   -0.1660 
      2 C2          4.3840   -5.1430   -0.9730 C.ar    1     ****   -0.2190 
      3 C3          3.3440   -5.7100   -1.7120 C.ar    1     ****    0.1110 
      4 C4          3.3010   -7.0890   -1.9480 C.ar    1     ****   -0.1000 
      5 C5          4.3430   -7.8850   -1.4350 C.ar    1     ****   -0.1310 
      6 C6          5.4010   -7.3290   -0.7040 C.ar    1     ****    0.0440 
      7 N1          6.3990   -8.1370   -0.1790 N.pl3   1     ****   -0.7930 
      8 C7          2.1920   -7.7440   -2.7220 C.2     1     ****    0.9210 
      9 O1          1.0080   -7.3370   -2.5080 O.co2   1     ****   -0.8070 
     10 O2          2.3690   -4.8990   -2.2280 O.3     1     ****   -0.4680 
     11 H1          6.4230   -9.1230   -0.4040 H       1     ****    0.3590 
     12 H2          7.1900   -7.7260    0.2960 H       1     ****    0.3460 
     13 H3          2.5440   -3.9830   -1.9560 H       1     ****    0.3840 
     14 H4          6.2020   -5.4950    0.1110 H       1     ****    0.1060 
     15 H5          4.4150   -4.0730   -0.7860 H       1     ****    0.1050 
     16 H6          4.3230   -8.9610   -1.6040 H       1     ****    0.1470 
     17 O3          2.5270   -8.6740   -3.5210 O.co2   1     ****   -0.8380 
@<TRIPOS>BOND
     1  2 1 ar
     2  3 2 ar
     3  4 3 ar
     4  5 4 ar
     5  6 1 ar
     6  6 5 ar
     7  7 6 1
     8  8 4 1
     9  9 8 1
    10 10 3 1
    11 11 7 1
    12 12 7 1
    13 13 10 1
    14 14 1 1
    15 15 2 1
    16 16 5 1
    17 17 8 2
@<TRIPOS>SUBSTRUCTURE
1     ****    1
@<TRIPOS>MOLECULE
ZINC00001701
33 35 1 0 0 
SMALL
USER_CHARGES


@<TRIPOS>ATOM
      1 C1          7.1810   -6.6340    2.9760 C.3     1     ****   -0.0650 
      2 C2          6.2300   -7.4700    2.1660 C.ar    1     ****   -0.0460 
      3 C3          6.4070   -8.8640    2.1560 C.ar    1     ****   -0.1290 
      4 C4          5.5690   -9.6880    1.4050 C.ar    1     ****   -0.1160 
      5 C5          4.5340   -9.1350    0.6580 C.ar    1     ****   -0.1330 
      6 C6          4.3310   -7.7560    0.6670 C.ar    1     ****   -0.1210 
      7 C7          5.1680   -6.9160    1.4200 C.ar    1     ****    0.0250 
      8 N1          4.8950   -5.5120    1.4380 N.am    1     ****   -0.3240 
      9 C8          4.9950   -4.7370    0.2840 C.2     1     ****    0.5060 
     10 N2          4.6860   -3.4780    0.2320 N.2     1     ****   -0.6290 
     11 C9          4.2520   -2.8440    1.4020 C.ar    1     ****    0.1860 
     12 C10         3.9400   -1.4810    1.3560 C.ar    1     ****   -0.1240 
     13 C11         3.5140   -0.8100    2.5040 C.ar    1     ****   -0.0950 
     14 C12         3.3960   -1.4970    3.7100 C.ar    1     ****   -0.1550 
     15 C13         3.7030   -2.8560    3.7700 C.ar    1     ****   -0.0600 
     16 C14         4.1300   -3.5220    2.6160 C.ar    1     ****   -0.1930 
     17 C15         4.4450   -4.9640    2.6520 C.2     1     ****    0.7140 
     18 O1          4.2620   -5.5860    3.6960 O.2     1     ****   -0.6110 
     19 C16         5.5180   -5.3640   -0.9910 C.3     1     ****   -0.1390 
     20 H1          8.1590   -7.1220    3.0540 H       1     ****    0.0440 
     21 H2          7.3560   -5.6600    2.5080 H       1     ****    0.0470 
     22 H3          6.7900   -6.4850    3.9870 H       1     ****    0.0720 
     23 H4          7.2100   -9.3170    2.7320 H       1     ****    0.1380 
     24 H5          5.7240  -10.7630    1.4050 H       1     ****    0.1360 
     25 H6          3.8780   -9.7770    0.0770 H       1     ****    0.1370 
     26 H7          3.4980   -7.3440    0.1020 H       1     ****    0.1400 
     27 H8          4.0310   -0.9330    0.4220 H       1     ****    0.1520 
     28 H9          3.2750    0.2490    2.4570 H       1     ****    0.1360 
     29 H10         3.0640   -0.9750    4.6030 H       1     ****    0.1390 
     30 H11         3.6040   -3.3790    4.7180 H       1     ****    0.1580 
     31 H12         6.3470   -6.0470   -0.7930 H       1     ****    0.0670 
     32 H13         4.7090   -5.9020   -1.4920 H       1     ****    0.0640 
     33 H14         5.8760   -4.5830   -1.6700 H       1     ****    0.0790 
@<TRIPOS>BOND
     1  2 1 1
     2  3 2 ar
     3  4 3 ar
     4  5 4 ar
     5  6 5 ar
     6  7 2 ar
     7  7 6 ar
     8  8 7 1
     9  9 8 1
    10 10 9 2
    11 11 10 1
    12 12 11 ar
    13 13 12 ar
    14 14 13 ar
    15 15 14 ar
    16 16 11 ar
    17 16 15 ar
    18 17 8 1
    19 17 16 1
    20 18 17 2
    21 19 9 1
    22 20 1 1
    23 21 1 1
    24 22 1 1
    25 23 3 1
    26 24 4 1
    27 25 5 1
    28 26 6 1
    29 27 12 1
    30 28 13 1
    31 29 14 1
    32 30 15 1
    33 31 19 1
    34 32 19 1
    35 33 19 1
@<TRIPOS>SUBSTRUCTURE
1     ****    1
@<TRIPOS>MOLECULE
ZINC00001706
17 17 1 0 0 
SMALL
USER_CHARGES


@<TRIPOS>ATOM
      1 C1          7.3960  -10.4970   -0.5690 C.3     1     ****    0.1280 
      2 O1          6.1260   -9.8460   -0.4630 O.3     1     ****   -0.4410 
      3 C2          5.5240   -9.5520   -1.6430 C.2     1     ****    0.6500 
      4 O2          5.9600   -9.7890   -2.7590 O.2     1     ****   -0.5380 
      5 C3          4.2250   -8.8840   -1.4050 C.ar    1     ****   -0.2550 
      6 C4          3.7230   -8.6110   -0.1310 C.ar    1     ****   -0.0330 
      7 C5          2.4900   -7.9780    0.0020 C.ar    1     ****   -0.2650 
      8 C6          1.8010   -7.6400   -1.1510 C.ar    1     ****    0.4250 
      9 N1          2.2520   -7.8860   -2.4000 N.ar    1     ****   -0.6720 
     10 C7          3.4540   -8.5030   -2.4980 C.ar    1     ****    0.4530 
     11 H1          7.7710  -10.6760    0.4420 H       1     ****    0.0630 
     12 H2          7.2870  -11.4590   -1.0790 H       1     ****    0.0480 
     13 H3          8.1070   -9.8560   -1.0990 H       1     ****    0.0480 
     14 H4          4.2700   -8.8800    0.7680 H       1     ****    0.1610 
     15 H5          2.0800   -7.7560    0.9810 H       1     ****    0.1510 
     16 H6          0.8360   -7.1450   -1.0980 H       1     ****    0.0280 
     17 H7          3.7790   -8.6820   -3.5180 H       1     ****    0.0480 
@<TRIPOS>BOND
     1  2 1 1
     2  3 2 1
     3  4 3 2
     4  5 3 1
     5  6 5 ar
     6  7 6 ar
     7  8 7 ar
     8  9 8 ar
     9 10 5 ar
    10 10 9 ar
    11 11 1 1
    12 12 1 1
    13 13 1 1
    14 14 6 1
    15 15 7 1
    16 16 8 1
    17 17 10 1
@<TRIPOS>SUBSTRUCTURE
1     ****    1
@<TRIPOS>MOLECULE
ZINC00001727
45 48 1 0 0 
SMALL
USER_CHARGES


@<TRIPOS>ATOM
      1 C1          1.6320    7.2790    2.8170 C.3     1     ****   -0.1160 
      2 C2          0.8360    7.6500    4.0630 C.3     1     ****    0.1580 
      3 C3         -0.1390    6.5160    4.5140 C.3     1     ****   -0.0730 
      4 C4         -0.2610    6.6050    6.0620 C.3     1     ****   -0.0690 
      5 C5          0.5190    7.8700    6.4030 C.3     1     ****   -0.0650 
      6 C6          1.6400    7.9010    5.3660 C.3     1     ****   -0.0580 
      7 C7          2.3570    9.2210    5.4640 C.2     1     ****   -0.1400 
      8 C8          2.3870    9.9160    6.6180 C.2     1     ****   -0.1320 
      9 C9          1.7100    9.4970    7.8600 C.2     1     ****   -0.0390 
     10 C10         1.6290   10.2820    8.9660 C.2     1     ****   -0.0920 
     11 C11         2.2610   11.6560    9.1090 C.3     1     ****   -0.0350 
     12 C12         1.3470   12.6560    9.8040 C.3     1     ****   -0.1800 
     13 C13         0.8560   12.1030   11.1150 C.2     1     ****    0.5690 
     14 O1          0.6070   12.8240   12.0780 O.2     1     ****   -0.5360 
     15 C14         0.5890   10.6480   11.1880 C.2     1     ****   -0.2570 
     16 C15         0.9160    9.8290   10.1740 C.2     1     ****    0.0020 
     17 C16         0.5090    8.3790   10.2320 C.3     1     ****   -0.0550 
     18 C17        -0.0300    7.9390    8.8780 C.3     1     ****   -0.0720 
     19 C18         1.0700    8.0950    7.8140 C.3     1     ****   -0.0190 
     20 C19         2.7310    6.8110    5.5630 C.3     1     ****   -0.0800 
     21 O2          0.0500    8.8050    3.7460 O.3     1     ****   -0.5940 
     22 H1          0.6520    9.5110    3.4570 H       1     ****    0.4000 
     23 H2          2.1660    6.3300    2.9270 H       1     ****    0.0460 
     24 H3          0.9660    7.1880    1.9520 H       1     ****    0.0530 
     25 H4          2.3580    8.0600    2.5690 H       1     ****    0.0350 
     26 H5         -1.1250    6.6350    4.0520 H       1     ****    0.0690 
     27 H6          0.2420    5.5240    4.2460 H       1     ****    0.0480 
     28 H7         -1.3090    6.6680    6.3750 H       1     ****    0.0490 
     29 H8          0.1760    5.7180    6.5330 H       1     ****    0.0410 
     30 H9         -0.2220    8.6830    6.2710 H       1     ****    0.0720 
     31 H10         2.9060    9.5890    4.6020 H       1     ****    0.1260 
     32 H11         2.9510   10.8420    6.6120 H       1     ****    0.1280 
     33 H12         3.1850   11.5440    9.6930 H       1     ****    0.0580 
     34 H13         2.5480   12.0960    8.1520 H       1     ****    0.0530 
     35 H14         1.9010   13.5810    9.9980 H       1     ****    0.0730 
     36 H15         0.4770   12.8970    9.1820 H       1     ****    0.0750 
     37 H16         0.0740   10.2930   12.0740 H       1     ****    0.1500 
     38 H17         1.3760    7.7670   10.5120 H       1     ****    0.0600 
     39 H18        -0.2610    8.2100   10.9940 H       1     ****    0.0570 
     40 H19        -0.3500    6.8920    8.9350 H       1     ****    0.0490 
     41 H20        -0.9170    8.5310    8.6140 H       1     ****    0.0550 
     42 H21         1.8100    7.3180    8.0630 H       1     ****    0.0640 
     43 H22         3.2660    6.9250    6.5120 H       1     ****    0.0420 
     44 H23         2.3220    5.7960    5.5430 H       1     ****    0.0420 
     45 H24         3.4950    6.8700    4.7790 H       1     ****    0.0380 
@<TRIPOS>BOND
     1  2 1 1
     2  3 2 1
     3  4 3 1
     4  5 4 1
     5  6 2 1
     6  6 5 1
     7  7 6 1
     8  8 7 2
     9  9 8 1
    10 10 9 2
    11 11 10 1
    12 12 11 1
    13 13 12 1
    14 14 13 2
    15 15 13 1
    16 16 10 1
    17 16 15 2
    18 17 16 1
    19 18 17 1
    20 19 5 1
    21 19 9 1
    22 19 18 1
    23 20 6 1
    24 21 2 1
    25 22 21 1
    26 23 1 1
    27 24 1 1
    28 25 1 1
    29 26 3 1
    30 27 3 1
    31 28 4 1
    32 29 4 1
    33 30 5 1
    34 31 7 1
    35 32 8 1
    36 33 11 1
    37 34 11 1
    38 35 12 1
    39 36 12 1
    40 37 15 1
    41 38 17 1
    42 39 17 1
    43 40 18 1
    44 41 18 1
    45 42 19 1
    46 43 20 1
    47 44 20 1
    48 45 20 1
@<TRIPOS>SUBSTRUCTURE
1     ****    1
@<TRIPOS>MOLECULE
ZINC00001800
16 16 1 0 0 
SMALL
USER_CHARGES


@<TRIPOS>ATOM
      1 C1          6.3940  -10.1760   -0.4210 C.ar    1     ****   -0.2570 
      2 C2          5.8160   -9.1050   -1.0960 C.ar    1     ****   -0.0370 
      3 C3          4.4260   -8.9670   -1.1210 C.ar    1     ****   -0.2740 
      4 C4          3.6740   -9.9180   -0.4410 C.ar    1     ****    0.4330 
      5 N1          4.2070  -10.9710    0.2230 N.ar    1     ****   -0.6700 
      6 C5          5.5540  -11.0740    0.2150 C.ar    1     ****    0.4220 
      7 C6          3.8240   -7.8160   -1.8360 C.2     1     ****    0.6070 
      8 O1          4.5090   -6.8260   -2.0840 O.2     1     ****   -0.5610 
      9 N2          2.5070   -7.9460   -2.2040 N.am    1     ****   -0.3420 
     10 O2          1.9270   -6.8710   -2.8990 O.3     1     ****   -0.4360 
     11 H1          1.9220   -8.7670   -2.0960 H       1     ****    0.2980 
     12 H2          2.7060   -6.3630   -3.1840 H       1     ****    0.4380 
     13 H3          7.4700  -10.3030   -0.3950 H       1     ****    0.1530 
     14 H4          6.4610   -8.3910   -1.6030 H       1     ****    0.1660 
     15 H5          2.5920   -9.8720   -0.3810 H       1     ****    0.0320 
     16 H6          5.9560  -11.9260    0.7530 H       1     ****    0.0290 
@<TRIPOS>BOND
     1  2 1 ar
     2  3 2 ar
     3  4 3 ar
     4  5 4 ar
     5  6 1 ar
     6  6 5 ar
     7  7 3 1
     8  8 7 2
     9  9 7 1
    10 10 9 1
    11 11 9 1
    12 12 10 1
    13 13 1 1
    14 14 2 1
    15 15 4 1
    16 16 6 1
@<TRIPOS>SUBSTRUCTURE
1     ****    1
@<TRIPOS>MOLECULE
ZINC00001807
16 16 1 0 0 
SMALL
USER_CHARGES


@<TRIPOS>ATOM
      1 C1          3.7490   -6.5640   -1.6050 C.2     1     ****   -0.1930 
      2 C2          2.5920   -5.7430   -1.5920 C.2     1     ****   -0.1510 
      3 C3          1.6680   -6.4460   -0.8630 C.2     1     ****    0.1530 
      4 O1          2.1560   -7.6310   -0.4240 O.2     1     ****   -0.3150 
      5 C4          3.4440   -7.7050   -0.8830 C.2     1     ****    0.2000 
      6 C5          4.2390   -8.8730   -0.5720 C.2     1     ****    0.4880 
      7 O2          5.4000   -8.9890   -0.9600 O.2     1     ****   -0.4690 
      8 C6          3.5450   -9.9360    0.2590 C.3     1     ****   -0.0750 
      9 CL1         4.6280  -11.3060    0.5660 Cl      1     ****   -0.1290 
     10 N1          0.3280   -6.1600   -0.4950 N.2     1     ****    0.2430 
     11 O3         -0.1340   -5.0820   -0.8880 O.2     1     ****   -0.1850 
     12 O4         -0.2710   -7.0040    0.1830 O.3     1     ****   -0.1680 
     13 H1          4.6940   -6.3500   -2.0840 H       1     ****    0.1940 
     14 H2          2.4640   -4.7750   -2.0550 H       1     ****    0.1970 
     15 H3          3.2500   -9.5200    1.2260 H       1     ****    0.1040 
     16 H4          2.6690  -10.3140   -0.2750 H       1     ****    0.1050 
@<TRIPOS>BOND
     1  2 1 1
     2  3 2 2
     3  4 3 1
     4  5 1 2
     5  5 4 1
     6  6 5 1
     7  7 6 2
     8  8 6 1
     9  9 8 1
    10 10 3 1
    11 11 10 2
    12 12 10 1
    13 13 1 1
    14 14 2 1
    15 15 8 1
    16 16 8 1
@<TRIPOS>SUBSTRUCTURE
1     ****    1
@<TRIPOS>MOLECULE
ZINC00001875
29 31 1 0 0 
SMALL
USER_CHARGES


@<TRIPOS>ATOM
      1 C1          5.0380   -8.8100   -0.3550 C.3     1     ****   -0.1080 
      2 C2          4.6330   -7.3440   -0.2720 C.3     1     ****    0.2250 
      3 N1          4.9750   -6.6520    0.9870 N.pl3   1     ****   -0.5300 
      4 C3          5.5370   -7.2610    2.0970 C.2     1     ****    0.0610 
      5 C4          5.8820   -6.6770    3.2510 C.2     1     ****   -0.2660 
      6 C5          5.6490   -5.2190    3.3790 C.2     1     ****    0.5990 
      7 O1          5.9920   -4.5950    4.3760 O.2     1     ****   -0.5560 
      8 C6          4.9960   -4.5300    2.2380 C.ar    1     ****   -0.2260 
      9 C7          4.6700   -5.2600    1.0570 C.ar    1     ****    0.2070 
     10 C8          4.0500   -4.5540    0.0060 C.ar    1     ****   -0.2050 
     11 C9          3.7920   -3.2030    0.1580 C.ar    1     ****    0.0980 
     12 C10         4.1190   -2.5250    1.3040 C.ar    1     ****   -0.0270 
     13 C11         4.7230   -3.1570    2.3660 C.ar    1     ****   -0.0210 
     14 O2          3.7780   -1.2100    1.2450 O.3     1     ****   -0.3390 
     15 C12         3.1970   -1.1360   -0.0720 C.3     1     ****    0.3240 
     16 O3          3.2020   -2.3990   -0.7690 O.3     1     ****   -0.3500 
     17 C13         6.4740   -7.5210    4.3850 C.2     1     ****    0.9300 
     18 O4          6.0540   -7.2440    5.5440 O.co2   1     ****   -0.7920 
     19 H1          4.7740   -9.2140   -1.3380 H       1     ****    0.0310 
     20 H2          6.1180   -8.9350   -0.2260 H       1     ****    0.0600 
     21 H3          4.5200   -9.4130    0.3970 H       1     ****    0.0540 
     22 H4          5.1240   -6.8340   -1.1100 H       1     ****    0.0350 
     23 H5          3.5480   -7.2940   -0.4300 H       1     ****    0.0320 
     24 H6          5.6910   -8.3270    1.9850 H       1     ****    0.1760 
     25 H7          3.7620   -5.0280   -0.9260 H       1     ****    0.1450 
     26 H8          4.9720   -2.6030    3.2640 H       1     ****    0.1770 
     27 H9          2.1610   -0.7900    0.0190 H       1     ****    0.0560 
     28 H10         3.7610   -0.4060   -0.6650 H       1     ****    0.0560 
     29 O5          7.3060   -8.4070    4.0310 O.co2   1     ****   -0.8450 
@<TRIPOS>BOND
     1  2 1 1
     2  3 2 1
     3  4 3 1
     4  5 4 2
     5  6 5 1
     6  7 6 2
     7  8 6 1
     8  9 3 1
     9  9 8 ar
    10 10 9 ar
    11 11 10 ar
    12 12 11 ar
    13 13 8 ar
    14 13 12 ar
    15 14 12 1
    16 15 14 1
    17 16 11 1
    18 16 15 1
    19 17 5 1
    20 18 17 1
    21 19 1 1
    22 20 1 1
    23 21 1 1
    24 22 2 1
    25 23 2 1
    26 24 4 1
    27 25 10 1
    28 26 13 1
    29 27 15 1
    30 28 15 1
    31 29 17 2
@<TRIPOS>SUBSTRUCTURE
1     ****    1
@<TRIPOS>MOLECULE
ZINC00001877
30 32 1 0 0 
SMALL
USER_CHARGES


@<TRIPOS>ATOM
      1 C1          7.5210   -8.1630   -0.6200 C.ar    1     ****   -0.1380 
      2 C2          7.1570   -6.9350   -1.1670 C.ar    1     ****   -0.1460 
      3 C3          6.6700   -5.9180   -0.3420 C.ar    1     ****   -0.0980 
      4 C4          6.5440   -6.1100    1.0440 C.ar    1     ****   -0.1340 
      5 C5          6.9080   -7.3590    1.5760 C.ar    1     ****   -0.1170 
      6 C6          7.3950   -8.3760    0.7510 C.ar    1     ****   -0.1410 
      7 C7          6.0230   -5.0380    1.9030 C.ar    1     ****    0.4030 
      8 C8          6.7070   -4.5020    2.9890 C.ar    1     ****   -0.0090 
      9 C9          6.0870   -3.5130    3.7590 C.ar    1     ****   -0.0680 
     10 C10         4.7900   -3.0670    3.4140 C.ar    1     ****   -0.1110 
     11 C11         4.0850   -2.0730    4.1330 C.ar    1     ****   -0.0670 
     12 C12         2.8100   -1.6700    3.7440 C.ar    1     ****   -0.1680 
     13 C13         2.2190   -2.2520    2.6330 C.ar    1     ****   -0.1390 
     14 C14         2.9070   -3.2340    1.9180 C.ar    1     ****   -0.1830 
     15 C15         4.1810   -3.6540    2.2870 C.ar    1     ****    0.3690 
     16 N1          4.7820   -4.6090    1.5570 N.ar    1     ****   -0.6740 
     17 C16         6.8110   -2.9350    4.9340 C.2     1     ****    0.9230 
     18 O1          7.4330   -1.8470    4.7330 O.co2   1     ****   -0.8140 
     19 O2          7.9770   -4.8830    3.3280 O.3     1     ****   -0.4730 
     20 H1          8.3560   -5.4280    2.6200 H       1     ****    0.3990 
     21 H2          7.8990   -8.9540   -1.2610 H       1     ****    0.1180 
     22 H3          7.2510   -6.7680   -2.2360 H       1     ****    0.1210 
     23 H4          6.3910   -4.9670   -0.7920 H       1     ****    0.1450 
     24 H5          6.8080   -7.5540    2.6420 H       1     ****    0.1540 
     25 H6          7.6720   -9.3350    1.1790 H       1     ****    0.1240 
     26 H7          4.5260   -1.6010    5.0090 H       1     ****    0.1720 
     27 H8          2.2840   -0.9050    4.3080 H       1     ****    0.1180 
     28 H9          1.2260   -1.9460    2.3190 H       1     ****    0.1110 
     29 H10         2.4250   -3.6790    1.0500 H       1     ****    0.1270 
     30 O3          6.7240   -3.5790    6.0230 O.co2   1     ****   -0.8060 
@<TRIPOS>BOND
     1  2 1 ar
     2  3 2 ar
     3  4 3 ar
     4  5 4 ar
     5  6 1 ar
     6  6 5 ar
     7  7 4 1
     8  8 7 ar
     9  9 8 ar
    10 10 9 ar
    11 11 10 ar
    12 12 11 ar
    13 13 12 ar
    14 14 13 ar
    15 15 10 ar
    16 15 14 ar
    17 16 7 ar
    18 16 15 ar
    19 17 9 1
    20 18 17 1
    21 19 8 1
    22 20 19 1
    23 21 1 1
    24 22 2 1
    25 23 3 1
    26 24 5 1
    27 25 6 1
    28 26 11 1
    29 27 12 1
    30 28 13 1
    31 29 14 1
    32 30 17 2
@<TRIPOS>SUBSTRUCTURE
1     ****    1
@<TRIPOS>MOLECULE
ZINC00001880
42 46 1 0 0 
SMALL
USER_CHARGES


@<TRIPOS>ATOM
      1 C1          4.8040   -4.6870   -6.4190 C.3     1     ****    0.0820 
      2 C2          3.8500   -5.3900   -4.2400 C.3     1     ****    0.1150 
      3 C3          3.2580   -4.9580   -2.9090 C.3     1     ****   -0.0850 
      4 C4          2.7330   -3.4980   -2.8310 C.3     1     ****   -0.0780 
      5 C5          3.7440   -2.6750   -2.1620 C.ar    1     ****   -0.1610 
      6 C6          4.7590   -1.9710   -2.7670 C.ar    1     ****   -0.1250 
      7 C7          5.5980   -1.2820   -1.8970 C.ar    1     ****   -0.0910 
      8 C8          5.3680   -1.3210   -0.4930 C.ar    1     ****   -0.1170 
      9 C9          4.2700   -2.0090    0.0560 C.ar    1     ****    0.1660 
     10 C10         3.4350   -2.6680   -0.8050 C.ar    1     ****    0.0230 
     11 O1          2.2190   -3.3180   -0.5550 O.3     1     ****   -0.2750 
     12 C11         1.6150   -3.1990   -1.8640 C.3     1     ****    0.0430 
     13 C12         0.4920   -4.1370   -2.2200 C.2     1     ****    0.5720 
     14 O2         -0.0750   -4.8620   -1.4110 O.2     1     ****   -0.4530 
     15 C13         0.0520   -4.0190   -3.7020 C.3     1     ****   -0.1900 
     16 C14         1.2080   -3.8560   -4.7520 C.3     1     ****   -0.0560 
     17 C15         2.3790   -2.9850   -4.2270 C.3     1     ****    0.1730 
     18 C16         3.7650   -2.9430   -4.9760 C.3     1     ****    0.1090 
     19 C17         4.7630   -1.9040   -4.2790 C.3     1     ****   -0.0510 
     20 O3          1.8500   -1.6480   -4.2010 O.3     1     ****   -0.5670 
     21 O4          4.0500   -1.9680    1.3960 O.3     1     ****   -0.4640 
     22 H1          2.4150   -1.0710   -3.6610 H       1     ****    0.4290 
     23 H2          3.2460   -2.4850    1.5810 H       1     ****    0.4510 
     24 H3          5.3780   -5.6170   -6.3990 H       1     ****    0.1040 
     25 H4          3.8540   -4.8240   -6.9430 H       1     ****    0.1050 
     26 H5          5.3990   -3.8920   -6.8760 H       1     ****    0.1040 
     27 H6          3.1190   -5.8700   -4.8950 H       1     ****    0.1000 
     28 H7          4.6210   -6.1500   -4.0620 H       1     ****    0.1010 
     29 H8          2.4600   -5.6720   -2.6740 H       1     ****    0.1030 
     30 H9          4.0140   -5.1380   -2.1300 H       1     ****    0.1000 
     31 H10         6.4240   -0.6880   -2.2820 H       1     ****    0.1560 
     32 H11         6.0400   -0.7720    0.1630 H       1     ****    0.1780 
     33 H12         1.2220   -2.1640   -1.9490 H       1     ****    0.0990 
     34 H13        -0.5450   -4.9010   -3.9590 H       1     ****    0.0970 
     35 H14        -0.6060   -3.1430   -3.7600 H       1     ****    0.0990 
     36 H15         1.5040   -4.8520   -5.0710 H       1     ****    0.0410 
     37 H16         0.7780   -3.3860   -5.6460 H       1     ****    0.0920 
     38 H17         3.6100   -2.5870   -6.0100 H       1     ****    0.1170 
     39 H18         4.4550   -0.8920   -4.5690 H       1     ****    0.1080 
     40 H19         5.7830   -2.0480   -4.6560 H       1     ****    0.0720 
     41 N1          4.5140   -4.2890   -4.9870 N.4     1     ****   -0.6780 
     42 H20         5.4550   -4.1660   -4.5700 H       1     ****    0.4540 
@<TRIPOS>BOND
     1  3 2 1
     2  4 3 1
     3  5 4 1
     4  6 5 ar
     5  7 6 ar
     6  8 7 ar
     7  9 8 ar
     8 10 5 ar
     9 10 9 ar
    10 11 10 1
    11 12 4 1
    12 12 11 1
    13 13 12 1
    14 14 13 2
    15 15 13 1
    16 16 15 1
    17 17 4 1
    18 17 16 1
    19 18 17 1
    20 19 6 1
    21 19 18 1
    22 20 17 1
    23 21 9 1
    24 22 20 1
    25 23 21 1
    26 24 1 1
    27 25 1 1
    28 26 1 1
    29 27 2 1
    30 28 2 1
    31 29 3 1
    32 30 3 1
    33 31 7 1
    34 32 8 1
    35 33 12 1
    36 34 15 1
    37 35 15 1
    38 36 16 1
    39 37 16 1
    40 38 18 1
    41 39 19 1
    42 40 19 1
    43 41 1 1
    44 41 2 1
    45 41 18 1
    46 42 41 1
@<TRIPOS>SUBSTRUCTURE
1     ****    1
@<TRIPOS>MOLECULE
ZINC00001886
21 21 1 0 0 
SMALL
USER_CHARGES


@<TRIPOS>ATOM
      1 C1          7.0160   -9.0010   -1.5670 C.3     1     ****   -0.0860 
      2 C2          5.7430   -9.2530   -0.7770 C.3     1     ****    0.3360 
      3 O1          4.8140   -9.9100   -1.6360 O.3     1     ****   -0.4550 
      4 C3          3.5740  -10.0890   -0.9530 C.3     1     ****    0.3360 
      5 O2          3.0310   -8.8470   -0.5060 O.3     1     ****   -0.4540 
      6 C4          3.9660   -8.1150    0.2890 C.3     1     ****    0.3370 
      7 O3          5.2500   -7.9930   -0.3260 O.3     1     ****   -0.4540 
      8 C5          4.0570   -8.6520    1.7150 C.3     1     ****   -0.1510 
      9 C6          2.5860  -10.7070   -1.9270 C.3     1     ****   -0.0860 
     10 H1          7.4350   -9.9390   -1.9450 H       1     ****    0.0530 
     11 H2          6.8120   -8.3610   -2.4330 H       1     ****    0.0670 
     12 H3          7.7650   -8.4920   -0.9520 H       1     ****    0.0530 
     13 H4          5.9820   -9.8970    0.0780 H       1     ****    0.0330 
     14 H5          3.7090  -10.7730   -0.1060 H       1     ****    0.0330 
     15 H6          3.5690   -7.0970    0.3560 H       1     ****    0.1060 
     16 H7          3.0670   -8.6720    2.1810 H       1     ****    0.0590 
     17 H8          4.4470   -9.6730    1.7500 H       1     ****    0.0400 
     18 H9          4.7290   -8.0320    2.3160 H       1     ****    0.0590 
     19 H10         2.9580  -11.6630   -2.3090 H       1     ****    0.0530 
     20 H11         1.6120  -10.8610   -1.4520 H       1     ****    0.0530 
     21 H12         2.4310  -10.0480   -2.7890 H       1     ****    0.0670 
@<TRIPOS>BOND
     1  2 1 1
     2  3 2 1
     3  4 3 1
     4  5 4 1
     5  6 5 1
     6  7 2 1
     7  7 6 1
     8  8 6 1
     9  9 4 1
    10 10 1 1
    11 11 1 1
    12 12 1 1
    13 13 2 1
    14 14 4 1
    15 15 6 1
    16 16 8 1
    17 17 8 1
    18 18 8 1
    19 19 9 1
    20 20 9 1
    21 21 9 1
@<TRIPOS>SUBSTRUCTURE
1     ****    1
@<TRIPOS>MOLECULE
ZINC00001971
40 43 1 0 0 
SMALL
USER_CHARGES


@<TRIPOS>ATOM
      1 C1          7.1240  -10.9300    1.2310 C.ar    1     ****   -0.1130 
      2 C2          7.1730  -10.0960    0.1140 C.ar    1     ****   -0.1400 
      3 C3          6.4430   -8.9070    0.0960 C.ar    1     ****   -0.0860 
      4 C4          5.6680   -8.5480    1.2050 C.ar    1     ****   -0.1460 
      5 C5          5.6090   -9.3920    2.3210 C.ar    1     ****   -0.1050 
      6 C6          6.3420  -10.5800    2.3310 C.ar    1     ****   -0.1380 
      7 C7          4.8790   -7.2830    1.1670 C.2     1     ****    0.5360 
      8 N1          4.3010   -6.9810    0.0530 N.2     1     ****   -0.5770 
      9 C8          3.4770   -5.7880    0.0290 C.3     1     ****    0.0370 
     10 C9          2.2200   -6.1230    0.7980 C.2     1     ****    0.6950 
     11 O1          1.1800   -6.3700    0.1820 O.2     1     ****   -0.6140 
     12 N2          2.3200   -6.0940    2.1970 N.am    1     ****   -0.3890 
     13 C10         3.5700   -5.9460    2.8990 C.ar    1     ****    0.0940 
     14 C11         4.7920   -6.4500    2.4040 C.ar    1     ****   -0.2060 
     15 C12         5.9960   -6.2310    3.1000 C.ar    1     ****   -0.0790 
     16 C13         5.9880   -5.5530    4.3140 C.ar    1     ****   -0.0080 
     17 C14         4.7930   -5.0890    4.8440 C.ar    1     ****   -0.0930 
     18 C15         3.5990   -5.2860    4.1430 C.ar    1     ****   -0.1570 
     19 CL1         7.4620   -5.2990    5.1660 Cl      1     ****   -0.0820 
     20 C16         1.0790   -6.2640    2.9730 C.3     1     ****    0.1130 
     21 C17         1.0590   -7.5920    3.6740 C.3     1     ****   -0.1530 
     22 C18         0.7930   -8.8570    2.9010 C.3     1     ****   -0.1200 
     23 C19        -0.2400   -8.3310    3.8570 C.3     1     ****   -0.1260 
     24 H1          7.6930  -11.8550    1.2420 H       1     ****    0.1340 
     25 H2          7.7790  -10.3730   -0.7440 H       1     ****    0.1360 
     26 H3          6.4930   -8.2690   -0.7820 H       1     ****    0.1500 
     27 H4          4.9900   -9.1490    3.1800 H       1     ****    0.1410 
     28 H5          6.2980  -11.2360    3.1960 H       1     ****    0.1350 
     29 H6          3.9760   -4.8930    0.4160 H       1     ****    0.0690 
     30 H7          3.2010   -5.5650   -1.0070 H       1     ****    0.1070 
     31 H8          6.9390   -6.5950    2.6990 H       1     ****    0.1630 
     32 H9          4.7710   -4.5600    5.7940 H       1     ****    0.1530 
     33 H10         2.7010   -4.8680    4.5890 H       1     ****    0.1480 
     34 H11         0.2150   -6.1870    2.3020 H       1     ****    0.0920 
     35 H12         0.9550   -5.4440    3.6850 H       1     ****    0.0430 
     36 H13         1.7690   -7.6440    4.4910 H       1     ****    0.0820 
     37 H14         0.5820   -8.7850    1.8410 H       1     ****    0.0830 
     38 H15         1.3430   -9.7460    3.1880 H       1     ****    0.0720 
     39 H16        -0.3880   -8.8680    4.7860 H       1     ****    0.0720 
     40 H17        -1.1440   -7.9080    3.4370 H       1     ****    0.0740 
@<TRIPOS>BOND
     1  2 1 ar
     2  3 2 ar
     3  4 3 ar
     4  5 4 ar
     5  6 1 ar
     6  6 5 ar
     7  7 4 1
     8  8 7 2
     9  9 8 1
    10 10 9 1
    11 11 10 2
    12 12 10 1
    13 13 12 1
    14 14 7 1
    15 14 13 ar
    16 15 14 ar
    17 16 15 ar
    18 17 16 ar
    19 18 13 ar
    20 18 17 ar
    21 19 16 1
    22 20 12 1
    23 21 20 1
    24 22 21 1
    25 23 21 1
    26 23 22 1
    27 24 1 1
    28 25 2 1
    29 26 3 1
    30 27 5 1
    31 28 6 1
    32 29 9 1
    33 30 9 1
    34 31 15 1
    35 32 17 1
    36 33 18 1
    37 34 20 1
    38 35 20 1
    39 36 21 1
    40 37 22 1
    41 38 22 1
    42 39 23 1
    43 40 23 1
@<TRIPOS>SUBSTRUCTURE
1     ****    1
@<TRIPOS>MOLECULE
ZINC00001975
34 36 1 0 0 
SMALL
USER_CHARGES


@<TRIPOS>ATOM
      1 C1         -5.8410    3.9610   -4.3900 C.3     1     ****   -0.0420 
      2 C2         -5.7550    4.9900   -3.3130 C.2     1     ****   -0.0460 
      3 C3         -5.6040    4.8590   -1.9340 C.2     1     ****   -0.2810 
      4 C4         -5.7100    6.1730   -1.3870 C.2     1     ****    0.0090 
      5 C5         -5.7590    7.0650   -2.4320 C.2     1     ****   -0.2060 
      6 N1         -5.8080    6.3410   -3.5920 N.pl3   1     ****   -0.0470 
      7 C6         -5.8980    6.9300   -4.9100 C.3     1     ****    0.0210 
      8 N2         -5.7000    6.5420   -0.0560 N.am    1     ****   -0.4510 
      9 C7         -5.9930    5.6860    0.9850 C.2     1     ****    0.6900 
     10 O1         -5.7810    5.9900    2.1600 O.2     1     ****   -0.6280 
     11 C8         -6.7060    4.4000    0.6220 C.3     1     ****    0.0500 
     12 N3         -5.7890    3.4490    0.0160 N.2     1     ****   -0.5980 
     13 C9         -5.3330    3.6410   -1.1750 C.2     1     ****    0.5720 
     14 C10        -4.4360    2.6070   -1.7500 C.ar    1     ****   -0.1370 
     15 C11        -4.7730    1.2570   -1.6060 C.ar    1     ****   -0.0920 
     16 C12        -3.9300    0.2730   -2.1220 C.ar    1     ****   -0.1410 
     17 C13        -2.7480    0.6330   -2.7700 C.ar    1     ****   -0.1200 
     18 C14        -2.4040    1.9790   -2.8990 C.ar    1     ****   -0.1410 
     19 C15        -3.2420    2.9690   -2.3860 C.ar    1     ****   -0.1070 
     20 H1         -5.4670    7.5050    0.1630 H       1     ****    0.3260 
     21 H2         -6.1610    2.9940   -3.9910 H       1     ****    0.0740 
     22 H3         -6.5740    4.2440   -5.1520 H       1     ****    0.0460 
     23 H4         -4.8690    3.8340   -4.8770 H       1     ****    0.0540 
     24 H5         -5.8020    8.1460   -2.4430 H       1     ****    0.1740 
     25 H6         -5.7490    8.0100   -4.8400 H       1     ****    0.0620 
     26 H7         -5.1190    6.4960   -5.5430 H       1     ****    0.0550 
     27 H8         -6.8910    6.7170   -5.3140 H       1     ****    0.0510 
     28 H9         -7.0980    3.9600    1.5470 H       1     ****    0.1000 
     29 H10        -7.5770    4.6020   -0.0120 H       1     ****    0.0660 
     30 H11        -5.6900    0.9600   -1.1030 H       1     ****    0.1480 
     31 H12        -4.1930   -0.7760   -2.0180 H       1     ****    0.1340 
     32 H13        -2.0930   -0.1350   -3.1700 H       1     ****    0.1320 
     33 H14        -1.4780    2.2560   -3.3960 H       1     ****    0.1320 
     34 H15        -2.9470    4.0100   -2.4810 H       1     ****    0.1420 
@<TRIPOS>BOND
     1  2 1 1
     2  3 2 2
     3  4 3 1
     4  5 4 2
     5  6 2 1
     6  6 5 1
     7  7 6 1
     8  8 4 1
     9  9 8 1
    10 10 9 2
    11 11 9 1
    12 12 11 1
    13 13 3 1
    14 13 12 2
    15 14 13 1
    16 15 14 ar
    17 16 15 ar
    18 17 16 ar
    19 18 17 ar
    20 19 14 ar
    21 19 18 ar
    22 20 8 1
    23 21 1 1
    24 22 1 1
    25 23 1 1
    26 24 5 1
    27 25 7 1
    28 26 7 1
    29 27 7 1
    30 28 11 1
    31 29 11 1
    32 30 15 1
    33 31 16 1
    34 32 17 1
    35 33 18 1
    36 34 19 1
@<TRIPOS>SUBSTRUCTURE
1     ****    1
@<TRIPOS>MOLECULE
ZINC00001979
30 31 1 0 0 
SMALL
USER_CHARGES


@<TRIPOS>ATOM
      1 C1          5.0630   -4.7890    3.7030 C.3     1     ****   -0.1030 
      2 C2          5.3870   -5.1820    2.2630 C.3     1     ****   -0.0690 
      3 C3          4.1880   -5.1610    1.2610 C.3     1     ****   -0.1120 
      4 C4          3.0650   -6.0400    1.8730 C.2     1     ****    0.7020 
      5 O1          2.2010   -5.5870    2.6250 O.2     1     ****   -0.6140 
      6 N1          3.1000   -7.3770    1.5550 N.am    1     ****   -0.6000 
      7 C5          4.1680   -7.9670    0.8030 C.3     1     ****    0.2770 
      8 N2          4.6460   -7.0980   -0.2310 N.am    1     ****   -0.6020 
      9 C6          4.7580   -5.7370   -0.0640 C.2     1     ****    0.6990 
     10 O2          5.3140   -5.0340   -0.9090 O.2     1     ****   -0.6110 
     11 C7          3.6210   -3.7610    0.9340 C.ar    1     ****   -0.0630 
     12 C8          2.4210   -3.6590    0.2000 C.ar    1     ****   -0.1020 
     13 C9          1.8830   -2.4180   -0.1490 C.ar    1     ****   -0.1270 
     14 C10         2.5410   -1.2480    0.2160 C.ar    1     ****   -0.1180 
     15 C11         3.7390   -1.3230    0.9190 C.ar    1     ****   -0.1320 
     16 C12         4.2780   -2.5650    1.2680 C.ar    1     ****   -0.1000 
     17 H1          2.3940   -7.9810    1.9640 H       1     ****    0.3340 
     18 H2          5.0340   -7.5050   -1.0760 H       1     ****    0.3350 
     19 H3          5.9890   -4.7230    4.2850 H       1     ****    0.0390 
     20 H4          4.5590   -3.8220    3.7700 H       1     ****    0.0560 
     21 H5          4.4310   -5.5400    4.1870 H       1     ****    0.0490 
     22 H6          5.8260   -6.1870    2.3000 H       1     ****    0.0460 
     23 H7          6.1980   -4.5410    1.8930 H       1     ****    0.0670 
     24 H8          4.9920   -8.2040    1.4810 H       1     ****    0.0400 
     25 H9          3.8020   -8.8890    0.3430 H       1     ****    0.0500 
     26 H10         1.8890   -4.5550   -0.1140 H       1     ****    0.1300 
     27 H11         0.9540   -2.3670   -0.7080 H       1     ****    0.1330 
     28 H12         2.1270   -0.2820   -0.0550 H       1     ****    0.1320 
     29 H13         4.2630   -0.4110    1.1950 H       1     ****    0.1320 
     30 H14         5.2240   -2.5670    1.8000 H       1     ****    0.1340 
@<TRIPOS>BOND
     1  2 1 1
     2  3 2 1
     3  4 3 1
     4  5 4 2
     5  6 4 1
     6  7 6 1
     7  8 7 1
     8  9 3 1
     9  9 8 1
    10 10 9 2
    11 11 3 1
    12 12 11 ar
    13 13 12 ar
    14 14 13 ar
    15 15 14 ar
    16 16 11 ar
    17 16 15 ar
    18 17 6 1
    19 18 8 1
    20 19 1 1
    21 20 1 1
    22 21 1 1
    23 22 2 1
    24 23 2 1
    25 24 7 1
    26 25 7 1
    27 26 12 1
    28 27 13 1
    29 28 14 1
    30 29 15 1
    31 30 16 1
@<TRIPOS>SUBSTRUCTURE
1     ****    1
@<TRIPOS>MOLECULE
ZINC00001994
21 21 1 0 0 
SMALL
USER_CHARGES


@<TRIPOS>ATOM
      1 C1          1.3900   -7.5710   -2.0550 C.3     1     ****   -0.0970 
      2 C2          1.5180   -6.1480   -1.5300 C.3     1     ****   -0.0800 
      3 C3          2.7570   -5.4500   -2.1030 C.3     1     ****   -0.0580 
      4 C4          3.0020   -4.0240   -1.6600 C.2     1     ****    0.0920 
      5 C5          2.2280   -3.3290   -0.8130 C.2     1     ****   -0.3080 
      6 C6          2.5780   -1.9320   -0.4570 C.2     1     ****    0.7030 
      7 O1          1.8770   -1.2860    0.3160 O.2     1     ****   -0.6000 
      8 N1          3.7240   -1.4430   -1.0540 N.am    1     ****   -0.5410 
      9 C7          4.5250   -2.1520   -1.9250 C.2     1     ****    0.5520 
     10 S1          5.8960   -1.4840   -2.6040 S.2     1     ****   -0.5040 
     11 N2          4.1280   -3.4380   -2.2010 N.am    1     ****   -0.4310 
     12 H1          3.9940   -0.4900   -0.8330 H       1     ****    0.3640 
     13 H2          4.6960   -3.9880   -2.8400 H       1     ****    0.3620 
     14 H3          0.5010   -8.0510   -1.6350 H       1     ****    0.0460 
     15 H4          1.2980   -7.5800   -3.1450 H       1     ****    0.0370 
     16 H5          2.2630   -8.1710   -1.7780 H       1     ****    0.0370 
     17 H6          0.6130   -5.5910   -1.7990 H       1     ****    0.0530 
     18 H7          1.5750   -6.1790   -0.4360 H       1     ****    0.0530 
     19 H8          3.6420   -6.0460   -1.8410 H       1     ****    0.0680 
     20 H9          2.6850   -5.4600   -3.1990 H       1     ****    0.0690 
     21 H10         1.3330   -3.7330   -0.3570 H       1     ****    0.1820 
@<TRIPOS>BOND
     1  2 1 1
     2  3 2 1
     3  4 3 1
     4  5 4 2
     5  6 5 1
     6  7 6 2
     7  8 6 1
     8  9 8 1
     9 10 9 2
    10 11 4 1
    11 11 9 1
    12 12 8 1
    13 13 11 1
    14 14 1 1
    15 15 1 1
    16 16 1 1
    17 17 2 1
    18 18 2 1
    19 19 3 1
    20 20 3 1
    21 21 5 1
@<TRIPOS>SUBSTRUCTURE
1     ****    1
@<TRIPOS>MOLECULE
ZINC00002004
42 45 1 0 0 
SMALL
USER_CHARGES


@<TRIPOS>ATOM
      1 C1          6.5770   -8.5150    1.4560 C.ar    1     ****   -0.0970 
      2 C2          5.8510   -8.9740    0.3720 C.ar    1     ****   -0.1250 
      3 C3          4.6340   -8.3770    0.0720 C.ar    1     ****   -0.0780 
      4 C4          4.1320   -7.3150    0.8520 C.ar    1     ****   -0.0170 
      5 C5          4.8470   -6.8280    1.9640 C.ar    1     ****    0.0590 
      6 C6          6.0830   -7.4620    2.2350 C.ar    1     ****   -0.1840 
      7 N1          4.3530   -5.7470    2.7520 N.pl3   1     ****   -0.1800 
      8 C7          3.2540   -4.9040    2.4110 C.ar    1     ****    0.0580 
      9 C8          2.9720   -3.7040    3.1060 C.ar    1     ****   -0.1850 
     10 C9          1.9020   -2.8690    2.7660 C.ar    1     ****   -0.0960 
     11 C10         1.0700   -3.2040    1.7120 C.ar    1     ****   -0.1250 
     12 C11         1.3140   -4.3720    1.0030 C.ar    1     ****   -0.0780 
     13 C12         2.3920   -5.2160    1.3400 C.ar    1     ****   -0.0170 
     14 S1          2.5480   -6.6860    0.3560 S.3     1     ****   -0.1030 
     15 C13         5.0260   -5.4900    4.0490 C.3     1     ****    0.0500 
     16 C14         6.1850   -4.4960    3.8930 C.3     1     ****    0.0500 
     17 C15         7.6970   -2.9620    5.2080 C.3     1     ****    0.1120 
     18 C16         8.5820   -3.1830    6.4150 C.3     1     ****   -0.1030 
     19 C17         8.8490   -4.6730    6.3580 C.3     1     ****   -0.1020 
     20 C18         7.5240   -5.2840    5.9300 C.3     1     ****    0.1100 
     21 H1          7.5330   -8.9680    1.7030 H       1     ****    0.1420 
     22 H2          6.2270   -9.7900   -0.2370 H       1     ****    0.1540 
     23 H3          4.0720   -8.7520   -0.7830 H       1     ****    0.1590 
     24 H4          6.7180   -7.1530    3.0580 H       1     ****    0.1040 
     25 H5          3.5840   -3.3630    3.9350 H       1     ****    0.1030 
     26 H6          1.7270   -1.9560    3.3290 H       1     ****    0.1420 
     27 H7          0.2370   -2.5620    1.4430 H       1     ****    0.1550 
     28 H8          0.6490   -4.6230    0.1780 H       1     ****    0.1590 
     29 H9          5.3700   -6.4280    4.5020 H       1     ****    0.0740 
     30 H10         4.3080   -5.1300    4.7970 H       1     ****    0.0710 
     31 H11         5.8420   -3.5520    3.4570 H       1     ****    0.1120 
     32 H12         6.9970   -4.8810    3.2680 H       1     ****    0.1120 
     33 H13         8.2660   -3.0000    4.2730 H       1     ****    0.1080 
     34 H14         7.0940   -2.0520    5.2620 H       1     ****    0.1060 
     35 H15         9.5000   -2.5910    6.3730 H       1     ****    0.1020 
     36 H16         8.0470   -2.9250    7.3370 H       1     ****    0.0890 
     37 H17         9.6170   -4.8890    5.6050 H       1     ****    0.0950 
     38 H18         9.1990   -5.0740    7.3130 H       1     ****    0.0940 
     39 H19         6.9130   -5.5940    6.7830 H       1     ****    0.1040 
     40 H20         7.6620   -6.1180    5.2360 H       1     ****    0.1060 
     41 N2          6.7690   -4.1580    5.2410 N.4     1     ****   -0.6840 
     42 H21         5.9900   -3.8960    5.8610 H       1     ****    0.4450 
@<TRIPOS>BOND
     1  2 1 ar
     2  3 2 ar
     3  4 3 ar
     4  5 4 ar
     5  6 1 ar
     6  6 5 ar
     7  7 5 1
     8  8 7 1
     9  9 8 ar
    10 10 9 ar
    11 11 10 ar
    12 12 11 ar
    13 13 8 ar
    14 13 12 ar
    15 14 4 1
    16 14 13 1
    17 15 7 1
    18 16 15 1
    19 18 17 1
    20 19 18 1
    21 20 19 1
    22 21 1 1
    23 22 2 1
    24 23 3 1
    25 24 6 1
    26 25 9 1
    27 26 10 1
    28 27 11 1
    29 28 12 1
    30 29 15 1
    31 30 15 1
    32 31 16 1
    33 32 16 1
    34 33 17 1
    35 34 17 1
    36 35 18 1
    37 36 18 1
    38 37 19 1
    39 38 19 1
    40 39 20 1
    41 40 20 1
    42 41 16 1
    43 41 17 1
    44 41 20 1
    45 42 41 1
@<TRIPOS>SUBSTRUCTURE
1     ****    1
@<TRIPOS>MOLECULE
ZINC00002050
22 23 1 0 0 
SMALL
USER_CHARGES


@<TRIPOS>ATOM
      1 C1          5.6510  -10.5090    0.7740 C.2     1     ****   -0.2190 
      2 C2          5.2290   -9.7180   -0.2190 C.2     1     ****   -0.1620 
      3 C3          5.3420   -8.2220   -0.2060 C.3     1     ****   -0.0070 
      4 C4          3.9950   -7.5430   -0.2470 C.ar    1     ****   -0.0750 
      5 C5          3.2840   -7.3060    0.9520 C.ar    1     ****   -0.1260 
      6 C6          2.0270   -6.6950    0.9360 C.ar    1     ****   -0.1100 
      7 C7          1.5030   -6.3380   -0.2880 C.ar    1     ****    0.0520 
      8 C8          2.1830   -6.5700   -1.4610 C.ar    1     ****    0.0560 
      9 C9          3.4250   -7.1710   -1.4760 C.ar    1     ****   -0.1110 
     10 O1          1.4890   -6.1470   -2.5530 O.3     1     ****   -0.3360 
     11 C10         0.2980   -5.6200   -1.9340 C.3     1     ****    0.3210 
     12 O2          0.2990   -5.7390   -0.4970 O.3     1     ****   -0.3350 
     13 H1          5.5470  -11.5860    0.7020 H       1     ****    0.1140 
     14 H2          6.1040  -10.1020    1.6720 H       1     ****    0.1100 
     15 H3          4.7880  -10.1790   -1.1000 H       1     ****    0.1240 
     16 H4          5.8940   -7.8720    0.6760 H       1     ****    0.0530 
     17 H5          5.9400   -7.9050   -1.0700 H       1     ****    0.0580 
     18 H6          3.7160   -7.6010    1.9060 H       1     ****    0.1400 
     19 H7          1.4850   -6.5130    1.8570 H       1     ****    0.1550 
     20 H8          3.9420   -7.3490   -2.4130 H       1     ****    0.1550 
     21 H9          0.2040   -4.5610   -2.1980 H       1     ****    0.0710 
     22 H10        -0.5710   -6.1600   -2.3300 H       1     ****    0.0720 
@<TRIPOS>BOND
     1  2 1 2
     2  3 2 1
     3  4 3 1
     4  5 4 ar
     5  6 5 ar
     6  7 6 ar
     7  8 7 ar
     8  9 4 ar
     9  9 8 ar
    10 10 8 1
    11 11 10 1
    12 12 7 1
    13 12 11 1
    14 13 1 1
    15 14 1 1
    16 15 2 1
    17 16 3 1
    18 17 3 1
    19 18 5 1
    20 19 6 1
    21 20 9 1
    22 21 11 1
    23 22 11 1
@<TRIPOS>SUBSTRUCTURE
1     ****    1
@<TRIPOS>MOLECULE
ZINC00002054
17 17 1 0 0 
SMALL
USER_CHARGES


@<TRIPOS>ATOM
      1 C1          6.4580   -9.0580   -0.5130 C.ar    1     ****   -0.1630 
      2 C2          6.3370  -10.3440   -1.0280 C.ar    1     ****   -0.0950 
      3 C3          5.0730  -10.9020   -1.2030 C.ar    1     ****   -0.1560 
      4 C4          3.9320  -10.1680   -0.8670 C.ar    1     ****    0.1340 
      5 C5          4.0290   -8.8560   -0.3790 C.ar    1     ****   -0.2120 
      6 C6          5.3160   -8.3240   -0.1850 C.ar    1     ****   -0.0860 
      7 C7          2.8090   -8.0470   -0.0090 C.3     1     ****    0.1770 
      8 O1          3.0280   -6.6420   -0.0790 O.3     1     ****   -0.5900 
      9 O2          2.7360  -10.8140   -1.0400 O.3     1     ****   -0.4990 
     10 H1          3.3880   -6.4440   -0.9610 H       1     ****    0.4050 
     11 H2          2.0250  -10.3150   -0.6090 H       1     ****    0.4200 
     12 H3          7.4430   -8.6230   -0.3630 H       1     ****    0.1360 
     13 H4          7.2240  -10.9160   -1.2840 H       1     ****    0.1360 
     14 H5          4.9810  -11.9130   -1.5900 H       1     ****    0.1510 
     15 H6          5.4450   -7.3250    0.2250 H       1     ****    0.1450 
     16 H7          1.9780   -8.2610   -0.6890 H       1     ****    0.0230 
     17 H8          2.5000   -8.2950    1.0110 H       1     ****    0.0750 
@<TRIPOS>BOND
     1  2 1 ar
     2  3 2 ar
     3  4 3 ar
     4  5 4 ar
     5  6 1 ar
     6  6 5 ar
     7  7 5 1
     8  8 7 1
     9  9 4 1
    10 10 8 1
    11 11 9 1
    12 12 1 1
    13 13 2 1
    14 14 3 1
    15 15 6 1
    16 16 7 1
    17 17 7 1
@<TRIPOS>SUBSTRUCTURE
1     ****    1
@<TRIPOS>MOLECULE
ZINC00002055
17 17 1 0 0 
SMALL
USER_CHARGES


@<TRIPOS>ATOM
      1 C1          6.3960   -9.0020   -0.2380 C.ar    1     ****   -0.1800 
      2 C2          6.7440   -8.5170   -1.4970 C.ar    1     ****   -0.0720 
      3 C3          5.7620   -8.3450   -2.4700 C.ar    1     ****   -0.1750 
      4 C4          4.4320   -8.6620   -2.1840 C.ar    1     ****    0.2010 
      5 C5          4.0720   -9.1680   -0.9260 C.ar    1     ****   -0.2350 
      6 C6          5.0670   -9.3240    0.0500 C.ar    1     ****   -0.0680 
      7 C7          2.6560   -9.5060   -0.6230 C.2     1     ****    0.6830 
      8 O1          1.7430   -8.9390   -1.2160 O.2     1     ****   -0.6460 
      9 N1          2.4390  -10.4890    0.3150 N.am    1     ****   -0.6640 
     10 O2          3.5340   -8.4590   -3.1980 O.3     1     ****   -0.5030 
     11 H1          1.4900  -10.7570    0.5530 H       1     ****    0.3210 
     12 H2          3.1790  -11.0120    0.7670 H       1     ****    0.3110 
     13 H3          2.6360   -8.6270   -2.8620 H       1     ****    0.4620 
     14 H4          7.1600   -9.1260    0.5250 H       1     ****    0.1380 
     15 H5          7.7780   -8.2680   -1.7170 H       1     ****    0.1380 
     16 H6          6.0370   -7.9610   -3.4490 H       1     ****    0.1560 
     17 H7          4.8330   -9.6760    1.0510 H       1     ****    0.1310 
@<TRIPOS>BOND
     1  2 1 ar
     2  3 2 ar
     3  4 3 ar
     4  5 4 ar
     5  6 1 ar
     6  6 5 ar
     7  7 5 1
     8  8 7 2
     9  9 7 1
    10 10 4 1
    11 11 9 1
    12 12 9 1
    13 13 10 1
    14 14 1 1
    15 15 2 1
    16 16 3 1
    17 17 6 1
@<TRIPOS>SUBSTRUCTURE
1     ****    1
@<TRIPOS>MOLECULE
ZINC00002076
51 54 1 0 0 
SMALL
USER_CHARGES


@<TRIPOS>ATOM
      1 C1         -4.2860    5.1950    6.3910 C.3     1     ****   -0.0890 
      2 C2         -3.1420    5.9030    5.6190 C.3     1     ****   -0.0390 
      3 C3         -2.3090    6.7190    6.6590 C.3     1     ****   -0.0680 
      4 C4         -1.0650    6.0150    7.2050 C.3     1     ****   -0.1810 
      5 C5         -1.1930    4.5130    7.2030 C.2     1     ****    0.5740 
      6 O1         -0.8720    3.8400    8.1820 O.2     1     ****   -0.5380 
      7 C6         -1.6540    3.8580    5.9210 C.3     1     ****   -0.1820 
      8 C7         -2.1690    4.8890    4.9140 C.3     1     ****   -0.0530 
      9 C8         -2.8320    4.1800    3.7060 C.3     1     ****   -0.0730 
     10 C9         -3.4910    5.1460    2.7080 C.3     1     ****   -0.0700 
     11 C10        -4.4810    6.0420    3.4610 C.3     1     ****   -0.0460 
     12 C11        -3.6960    6.8580    4.5090 C.3     1     ****   -0.0540 
     13 C12        -4.5890    8.0050    5.0170 C.3     1     ****   -0.0710 
     14 C13        -4.8410    9.0360    3.8880 C.3     1     ****   -0.0690 
     15 C14        -4.8740    8.4220    2.4570 C.3     1     ****   -0.0800 
     16 C15        -5.3460    6.9610    2.5640 C.3     1     ****   -0.0570 
     17 C16        -5.6440    6.5900    1.1110 C.3     1     ****   -0.0770 
     18 C17        -6.2090    7.8980    0.5000 C.3     1     ****   -0.1180 
     19 C18        -5.9160    9.0400    1.5130 C.3     1     ****    0.1410 
     20 O2         -7.1150    9.3600    2.2090 O.3     1     ****   -0.5920 
     21 C19        -3.4780    8.5850    1.7900 C.3     1     ****   -0.0820 
     22 H1         -7.5270    8.5390    2.5260 H       1     ****    0.3980 
     23 H2         -4.8010    4.4390    5.7930 H       1     ****    0.0390 
     24 H3         -3.9150    4.6820    7.2850 H       1     ****    0.0390 
     25 H4         -5.0360    5.9100    6.7440 H       1     ****    0.0400 
     26 H5         -1.9640    7.6620    6.2160 H       1     ****    0.0470 
     27 H6         -2.9500    7.0140    7.5000 H       1     ****    0.0500 
     28 H7         -0.1890    6.2670    6.5960 H       1     ****    0.0640 
     29 H8         -0.8600    6.3620    8.2240 H       1     ****    0.0710 
     30 H9         -0.8020    3.3190    5.4920 H       1     ****    0.0730 
     31 H10        -2.4280    3.1260    6.1720 H       1     ****    0.0770 
     32 H11        -1.3130    5.4360    4.4750 H       1     ****    0.0490 
     33 H12        -2.0760    3.5880    3.1760 H       1     ****    0.0410 
     34 H13        -3.5850    3.4640    4.0590 H       1     ****    0.0430 
     35 H14        -2.7220    5.7390    2.2010 H       1     ****    0.0440 
     36 H15        -4.0050    4.5520    1.9450 H       1     ****    0.0440 
     37 H16        -5.1680    5.3220    3.9390 H       1     ****    0.0480 
     38 H17        -2.8370    7.3760    4.0610 H       1     ****    0.0510 
     39 H18        -5.5550    7.6140    5.3590 H       1     ****    0.0400 
     40 H19        -4.1420    8.5270    5.8690 H       1     ****    0.0430 
     41 H20        -5.7700    9.5620    4.1320 H       1     ****    0.0570 
     42 H21        -4.0590    9.8060    3.9360 H       1     ****    0.0440 
     43 H22        -6.3360    6.8930    3.0590 H       1     ****    0.0350 
     44 H23        -4.7450    6.2890    0.5650 H       1     ****    0.0480 
     45 H24        -6.3670    5.7710    1.0370 H       1     ****    0.0450 
     46 H25        -5.7050    8.0910   -0.4540 H       1     ****    0.0510 
     47 H26        -7.2810    7.7990    0.3010 H       1     ****    0.0550 
     48 H27        -5.5740    9.9390    0.9800 H       1     ****    0.0800 
     49 H28        -3.2230    9.6490    1.7190 H       1     ****    0.0360 
     50 H29        -2.6540    8.1030    2.3110 H       1     ****    0.0400 
     51 H30        -3.4630    8.1970    0.7660 H       1     ****    0.0350 
@<TRIPOS>BOND
     1  2 1 1
     2  3 2 1
     3  4 3 1
     4  5 4 1
     5  6 5 2
     6  7 5 1
     7  8 2 1
     8  8 7 1
     9  9 8 1
    10 10 9 1
    11 11 10 1
    12 12 2 1
    13 12 11 1
    14 13 12 1
    15 14 13 1
    16 15 14 1
    17 16 11 1
    18 16 15 1
    19 17 16 1
    20 18 17 1
    21 19 15 1
    22 19 18 1
    23 20 19 1
    24 21 15 1
    25 22 20 1
    26 23 1 1
    27 24 1 1
    28 25 1 1
    29 26 3 1
    30 27 3 1
    31 28 4 1
    32 29 4 1
    33 30 7 1
    34 31 7 1
    35 32 8 1
    36 33 9 1
    37 34 9 1
    38 35 10 1
    39 36 10 1
    40 37 11 1
    41 38 12 1
    42 39 13 1
    43 40 13 1
    44 41 14 1
    45 42 14 1
    46 43 16 1
    47 44 17 1
    48 45 17 1
    49 46 18 1
    50 47 18 1
    51 48 19 1
    52 49 21 1
    53 50 21 1
    54 51 21 1
@<TRIPOS>SUBSTRUCTURE
1     ****    1
@<TRIPOS>MOLECULE
ZINC00002101
19 19 1 0 0 
SMALL
USER_CHARGES


@<TRIPOS>ATOM
      1 C1          5.4340   -7.5370   -2.2010 C.ar    1     ****   -0.2370 
      2 C2          4.1920   -7.0040   -2.5500 C.ar    1     ****    0.0290 
      3 C3          3.3500   -6.5210   -1.5500 C.ar    1     ****   -0.4580 
      4 C4          3.7400   -6.5520   -0.2120 C.ar    1     ****    0.0340 
      5 C5          4.9850   -7.0870    0.1250 C.ar    1     ****   -0.2380 
      6 C6          5.8480   -7.5780   -0.8630 C.ar    1     ****    0.2350 
      7 N1          7.0740   -8.1270   -0.5200 N.pl3   1     ****   -0.8490 
      8 S1          1.7880   -5.8190   -1.9870 S.o2    1     ****    1.5380 
      9 O1          1.3980   -4.9070   -0.9310 O.3     1     ****   -0.6670 
     10 O2          1.8750   -5.3710   -3.3620 O.3     1     ****   -0.6660 
     11 N2          0.7810   -7.1970   -1.9170 N.3     1     ****   -1.0270 
     12 H1          7.3870   -8.1200    0.4420 H       1     ****    0.4190 
     13 H2          7.7120   -8.4450   -1.2380 H       1     ****    0.4190 
     14 H3          0.0830   -7.1810   -1.1630 H       1     ****    0.4460 
     15 H4          1.2550   -8.1080   -1.9580 H       1     ****    0.4420 
     16 H5          6.0830   -7.9190   -2.9850 H       1     ****    0.1390 
     17 H6          3.9010   -6.9820   -3.5960 H       1     ****    0.1530 
     18 H7          3.0950   -6.1760    0.5760 H       1     ****    0.1490 
     19 H8          5.2800   -7.1160    1.1720 H       1     ****    0.1390 
@<TRIPOS>BOND
     1  2 1 ar
     2  3 2 ar
     3  4 3 ar
     4  5 4 ar
     5  6 1 ar
     6  6 5 ar
     7  7 6 1
     8  8 3 1
     9  9 8 1
    10 10 8 1
    11 11 8 1
    12 12 7 1
    13 13 7 1
    14 14 11 1
    15 15 11 1
    16 16 1 1
    17 17 2 1
    18 18 4 1
    19 19 5 1
@<TRIPOS>SUBSTRUCTURE
1     ****    1
@<TRIPOS>MOLECULE
ZINC00002189
25 26 1 0 0 
SMALL
USER_CHARGES


@<TRIPOS>ATOM
      1 C1          4.8890   -8.3460   -2.0220 C.3     1     ****   -0.0580 
      2 C2          4.1070   -7.7900   -0.8700 C.ar    1     ****   -0.0640 
      3 C3          3.4810   -8.6500    0.0430 C.ar    1     ****   -0.1330 
      4 C4          2.7860   -8.1370    1.1410 C.ar    1     ****   -0.1140 
      5 C5          2.7130   -6.7600    1.3410 C.ar    1     ****   -0.1510 
      6 C6          3.3300   -5.9020    0.4290 C.ar    1     ****    0.0760 
      7 C7          4.0440   -6.4080   -0.6580 C.ar    1     ****   -0.1330 
      8 O1          3.3120   -4.5420    0.6230 O.3     1     ****   -0.2320 
      9 C8          2.1210   -3.8700    0.4510 C.2     1     ****   -0.1590 
     10 C9          1.0160   -4.2720   -0.1930 C.2     1     ****   -0.0160 
     11 N1         -0.0810   -3.4580   -0.2890 N.am    1     ****   -0.4590 
     12 C10        -0.1270   -2.1790    0.2520 C.2     1     ****    0.7980 
     13 O2         -1.1460   -1.4970    0.1380 O.2     1     ****   -0.5970 
     14 N2          0.9980   -1.7140    0.9070 N.2     1     ****   -0.6030 
     15 C11         2.0250   -2.4960    0.9900 C.2     1     ****    0.5500 
     16 H1         -0.8990   -3.8030   -0.7800 H       1     ****    0.3430 
     17 H2          4.4620   -9.2950   -2.3620 H       1     ****    0.0470 
     18 H3          4.8720   -7.6590   -2.8740 H       1     ****    0.0470 
     19 H4          5.9290   -8.5130   -1.7220 H       1     ****    0.0540 
     20 H5          3.5360   -9.7270   -0.0930 H       1     ****    0.1380 
     21 H6          2.3090   -8.8130    1.8450 H       1     ****    0.1390 
     22 H7          2.1830   -6.3670    2.2040 H       1     ****    0.1480 
     23 H8          4.5450   -5.7250   -1.3410 H       1     ****    0.1520 
     24 H9          0.9170   -5.2380   -0.6720 H       1     ****    0.1700 
     25 H10         2.9260   -2.1290    1.5090 H       1     ****    0.0570 
@<TRIPOS>BOND
     1  2 1 1
     2  3 2 ar
     3  4 3 ar
     4  5 4 ar
     5  6 5 ar
     6  7 2 ar
     7  7 6 ar
     8  8 6 1
     9  9 8 1
    10 10 9 2
    11 11 10 1
    12 12 11 1
    13 13 12 2
    14 14 12 1
    15 15 9 1
    16 15 14 2
    17 16 11 1
    18 17 1 1
    19 18 1 1
    20 19 1 1
    21 20 3 1
    22 21 4 1
    23 22 5 1
    24 23 7 1
    25 24 10 1
    26 25 15 1
@<TRIPOS>SUBSTRUCTURE
1     ****    1
@<TRIPOS>MOLECULE
ZINC00002204
34 36 1 0 0 
SMALL
USER_CHARGES


@<TRIPOS>ATOM
      1 C1          4.3560    1.3580    2.9350 C.3     1     ****    0.1240 
      2 O1          3.7700    1.4100    1.6310 O.3     1     ****   -0.4220 
      3 C2          2.7510    2.3100    1.4840 C.2     1     ****    0.6220 
      4 O2          2.3140    3.0330    2.3710 O.2     1     ****   -0.5040 
      5 C3          2.2130    2.2530    0.0590 C.3     1     ****    0.3060 
      6 O3          3.3520    2.5220   -0.7670 O.3     1     ****   -0.3450 
      7 C4          3.1170    3.1900   -1.9380 C.ar    1     ****    0.1360 
      8 C5          4.0240    4.2190   -2.2190 C.ar    1     ****   -0.1210 
      9 C6          3.8920    4.9860   -3.3750 C.ar    1     ****   -0.1050 
     10 C7          2.8540    4.7140   -4.2600 C.ar    1     ****    0.0050 
     11 C8          1.9610    3.6720   -4.0040 C.ar    1     ****   -0.0990 
     12 C9          2.0940    2.8820   -2.8480 C.ar    1     ****   -0.1030 
     13 C10         1.1300    1.7410   -2.6370 C.3     1     ****    0.0070 
     14 C11        -0.0760    2.0870   -1.7930 C.ar    1     ****   -0.0940 
     15 C12        -1.3460    1.6930   -2.2540 C.ar    1     ****   -0.1110 
     16 C13        -2.4980    2.0070   -1.5310 C.ar    1     ****    0.0140 
     17 C14        -2.4110    2.7170   -0.3380 C.ar    1     ****   -0.1130 
     18 C15        -1.1610    3.1030    0.1390 C.ar    1     ****   -0.1120 
     19 C16         0.0030    2.7700   -0.5660 C.ar    1     ****    0.0900 
     20 O4          1.1670    3.2230    0.0010 O.3     1     ****   -0.3200 
     21 CL1        -4.0390    1.5200   -2.1250 Cl      1     ****   -0.0850 
     22 CL2         2.6760    5.6610   -5.6870 Cl      1     ****   -0.0900 
     23 H1          5.1590    0.6150    2.9170 H       1     ****    0.0680 
     24 H2          4.7840    2.3300    3.1990 H       1     ****    0.0500 
     25 H3          3.6100    1.0500    3.6740 H       1     ****    0.0450 
     26 H4          1.8600    1.2220   -0.0790 H       1     ****    0.0900 
     27 H5          4.8310    4.4390   -1.5240 H       1     ****    0.1580 
     28 H6          4.5970    5.7890   -3.5690 H       1     ****    0.1530 
     29 H7          1.1610    3.4620   -4.7110 H       1     ****    0.1500 
     30 H8          0.8000    1.3910   -3.6250 H       1     ****    0.0680 
     31 H9          1.6490    0.8720   -2.2140 H       1     ****    0.0650 
     32 H10        -1.4350    1.1460   -3.1910 H       1     ****    0.1520 
     33 H11        -3.3030    2.9750    0.2280 H       1     ****    0.1560 
     34 H12        -1.0930    3.6570    1.0730 H       1     ****    0.1660 
@<TRIPOS>BOND
     1  2 1 1
     2  3 2 1
     3  4 3 2
     4  5 3 1
     5  6 5 1
     6  7 6 1
     7  8 7 ar
     8  9 8 ar
     9 10 9 ar
    10 11 10 ar
    11 12 7 ar
    12 12 11 ar
    13 13 12 1
    14 14 13 1
    15 15 14 ar
    16 16 15 ar
    17 17 16 ar
    18 18 17 ar
    19 19 14 ar
    20 19 18 ar
    21 20 5 1
    22 20 19 1
    23 21 16 1
    24 22 10 1
    25 23 1 1
    26 24 1 1
    27 25 1 1
    28 26 5 1
    29 27 8 1
    30 28 9 1
    31 29 11 1
    32 30 13 1
    33 31 13 1
    34 32 15 1
    35 33 17 1
    36 34 18 1
@<TRIPOS>SUBSTRUCTURE
1     ****    1
@<TRIPOS>MOLECULE
ZINC00002226
29 31 1 0 0 
SMALL
USER_CHARGES


@<TRIPOS>ATOM
      1 C1         -7.2560    8.2170   -0.7520 C.3     1     ****   -0.0750 
      2 C2         -7.0100    8.0710    0.7220 C.2     1     ****    0.0510 
      3 C3         -7.4880    8.9730    1.5910 C.2     1     ****   -0.2670 
      4 C4         -7.2780    8.8780    3.0420 C.2     1     ****    0.7230 
      5 O1         -7.7300    9.7220    3.8080 O.2     1     ****   -0.5680 
      6 O2         -6.5460    7.7910    3.4900 O.3     1     ****   -0.3240 
      7 C5         -6.0200    6.8110    2.6090 C.ar    1     ****    0.1590 
      8 C6         -6.2360    6.9250    1.2290 C.ar    1     ****   -0.1580 
      9 C7         -5.7010    5.9370    0.3830 C.ar    1     ****   -0.0400 
     10 C8         -4.9700    4.8680    0.9360 C.ar    1     ****   -0.1220 
     11 C9         -4.3050    3.7260    0.4130 C.2     1     ****   -0.1750 
     12 C10        -3.7710    3.0560    1.4910 C.2     1     ****    0.0460 
     13 O3         -4.0640    3.7120    2.6470 O.2     1     ****   -0.2020 
     14 C11        -4.7940    4.8160    2.3130 C.ar    1     ****    0.1010 
     15 C12        -5.2960    5.7610    3.2130 C.ar    1     ****   -0.0830 
     16 C13        -5.0950    5.6870    4.6950 C.3     1     ****   -0.0420 
     17 C14        -2.9780    1.8200    1.6260 C.3     1     ****   -0.0430 
     18 H1         -7.8440    9.1130   -0.9810 H       1     ****    0.0550 
     19 H2         -6.3100    8.3050   -1.2970 H       1     ****    0.0600 
     20 H3         -7.8130    7.3590   -1.1410 H       1     ****    0.0600 
     21 H4         -8.0630    9.8290    1.2520 H       1     ****    0.1680 
     22 H5         -5.8360    5.9740   -0.6930 H       1     ****    0.1450 
     23 H6         -4.2270    3.4310   -0.6240 H       1     ****    0.1670 
     24 H7         -4.5110    4.8060    4.9770 H       1     ****    0.0530 
     25 H8         -4.5580    6.5730    5.0490 H       1     ****    0.0590 
     26 H9         -6.0620    5.6260    5.2050 H       1     ****    0.0600 
     27 H10        -2.0110    2.0340    2.0920 H       1     ****    0.0660 
     28 H11        -3.5080    1.0910    2.2480 H       1     ****    0.0660 
     29 H12        -2.7920    1.3630    0.6490 H       1     ****    0.0600 
@<TRIPOS>BOND
     1  2 1 1
     2  3 2 2
     3  4 3 1
     4  5 4 2
     5  6 4 1
     6  7 6 1
     7  8 2 1
     8  8 7 ar
     9  9 8 ar
    10 10 9 ar
    11 11 10 1
    12 12 11 2
    13 13 12 1
    14 14 10 ar
    15 14 13 1
    16 15 7 ar
    17 15 14 ar
    18 16 15 1
    19 17 12 1
    20 18 1 1
    21 19 1 1
    22 20 1 1
    23 21 3 1
    24 22 9 1
    25 23 11 1
    26 24 16 1
    27 25 16 1
    28 26 16 1
    29 27 17 1
    30 28 17 1
    31 29 17 1
@<TRIPOS>SUBSTRUCTURE
1     ****    1
@<TRIPOS>MOLECULE
ZINC00002289
49 52 1 0 0 
SMALL
USER_CHARGES


@<TRIPOS>ATOM
      1 C1          3.4770   -8.2550   -1.2260 C.3     1     ****   -0.0850 
      2 C2          2.4560   -7.1260   -1.4020 C.3     1     ****   -0.1630 
      3 C3          3.1590   -5.7710   -1.3810 C.3     1     ****   -0.0700 
      4 C4          2.1660   -4.5950   -1.5410 C.3     1     ****   -0.0340 
      5 C5          2.9120   -3.2860   -1.8860 C.3     1     ****   -0.0580 
      6 C6          4.0080   -2.8970   -0.8800 C.3     1     ****   -0.0690 
      7 C7          4.8130   -1.6660   -1.3630 C.3     1     ****   -0.0640 
      8 C8          4.0100   -0.6860   -2.2640 C.3     1     ****   -0.0790 
      9 C9          2.5300   -0.7570   -1.8540 C.3     1     ****   -0.0560 
     10 C10         1.8710   -2.1530   -1.9680 C.3     1     ****   -0.0480 
     11 C11         1.0390   -2.3730   -3.2380 C.3     1     ****   -0.0700 
     12 C12         0.2990   -3.7160   -3.1200 C.3     1     ****   -0.0550 
     13 C13         1.1660   -4.8750   -2.6600 C.2     1     ****   -0.0320 
     14 C14         1.0040   -6.0810   -3.2300 C.2     1     ****   -0.2690 
     15 C15         1.7290   -7.2700   -2.7210 C.2     1     ****    0.5710 
     16 O1          1.6490   -8.3300   -3.3380 O.2     1     ****   -0.5340 
     17 C16         1.9160    0.4540   -2.5610 C.3     1     ****   -0.0720 
     18 C17         3.0450    1.5150   -2.5440 C.3     1     ****   -0.0800 
     19 C18         4.3330    0.8010   -2.0540 C.3     1     ****    0.1410 
     20 O2          4.4940    1.0920   -0.6720 O.3     1     ****   -0.5950 
     21 C19         4.2730   -1.0300   -3.7560 C.3     1     ****   -0.0860 
     22 H1          5.4270    0.9320   -0.4470 H       1     ****    0.3990 
     23 H2          4.0290   -8.1390   -0.2880 H       1     ****    0.0330 
     24 H3          2.9790   -9.2310   -1.2040 H       1     ****    0.0560 
     25 H4          4.2000   -8.2720   -2.0490 H       1     ****    0.0420 
     26 H5          1.7500   -7.2090   -0.5610 H       1     ****    0.0720 
     27 H6          3.7010   -5.6660   -0.4330 H       1     ****    0.0500 
     28 H7          3.9110   -5.7330   -2.1830 H       1     ****    0.0530 
     29 H8          1.6520   -4.4970   -0.5700 H       1     ****    0.0650 
     30 H9          3.4510   -3.4220   -2.8340 H       1     ****    0.0590 
     31 H10         3.5520   -2.6760    0.0940 H       1     ****    0.0440 
     32 H11         4.7180   -3.7130   -0.7140 H       1     ****    0.0420 
     33 H12         5.2100   -1.1780   -0.4680 H       1     ****    0.0410 
     34 H13         5.6980   -2.0180   -1.9090 H       1     ****    0.0400 
     35 H14         2.4030   -0.5240   -0.7760 H       1     ****    0.0590 
     36 H15         1.1320   -2.2330   -1.1460 H       1     ****    0.0450 
     37 H16         0.2910   -1.5820   -3.3620 H       1     ****    0.0480 
     38 H17         1.6710   -2.3710   -4.1330 H       1     ****    0.0490 
     39 H18        -0.5120   -3.6010   -2.3880 H       1     ****    0.0560 
     40 H19        -0.1820   -3.9350   -4.0810 H       1     ****    0.0550 
     41 H20         0.3010   -6.2490   -4.0380 H       1     ****    0.1470 
     42 H21         1.6390    0.2400   -3.5970 H       1     ****    0.0420 
     43 H22         1.0200    0.8160   -2.0450 H       1     ****    0.0470 
     44 H23         3.1840    1.9050   -3.5590 H       1     ****    0.0460 
     45 H24         2.7760    2.3540   -1.8930 H       1     ****    0.0680 
     46 H25         5.2080    1.1720   -2.6060 H       1     ****    0.0360 
     47 H26         5.3310   -0.8580   -3.9930 H       1     ****    0.0320 
     48 H27         4.0610   -2.0590   -4.0360 H       1     ****    0.0420 
     49 H28         3.6970   -0.3960   -4.4370 H       1     ****    0.0380 
@<TRIPOS>BOND
     1  2 1 1
     2  3 2 1
     3  4 3 1
     4  5 4 1
     5  6 5 1
     6  7 6 1
     7  8 7 1
     8  9 8 1
     9 10 5 1
    10 10 9 1
    11 11 10 1
    12 12 11 1
    13 13 4 1
    14 13 12 1
    15 14 13 2
    16 15 2 1
    17 15 14 1
    18 16 15 2
    19 17 9 1
    20 18 17 1
    21 19 8 1
    22 19 18 1
    23 20 19 1
    24 21 8 1
    25 22 20 1
    26 23 1 1
    27 24 1 1
    28 25 1 1
    29 26 2 1
    30 27 3 1
    31 28 3 1
    32 29 4 1
    33 30 5 1
    34 31 6 1
    35 32 6 1
    36 33 7 1
    37 34 7 1
    38 35 9 1
    39 36 10 1
    40 37 11 1
    41 38 11 1
    42 39 12 1
    43 40 12 1
    44 41 14 1
    45 42 17 1
    46 43 17 1
    47 44 18 1
    48 45 18 1
    49 46 19 1
    50 47 21 1
    51 48 21 1
    52 49 21 1
@<TRIPOS>SUBSTRUCTURE
1     ****    1
@<TRIPOS>MOLECULE
ZINC00002290
52 55 1 0 0 
SMALL
USER_CHARGES


@<TRIPOS>ATOM
      1 C1          3.0070    7.5620    5.6920 C.3     1     ****   -0.0860 
      2 C2          1.5860    8.1590    5.8680 C.3     1     ****   -0.0360 
      3 C3          1.1950    8.8530    4.5270 C.3     1     ****   -0.0700 
      4 C4          0.9880    7.8790    3.3650 C.3     1     ****   -0.1060 
      5 C5          0.0290    6.7460    3.7130 C.3     1     ****    0.1710 
      6 C6          0.4040    6.0600    5.0210 C.3     1     ****   -0.1040 
      7 C7          0.4870    7.0750    6.1610 C.3     1     ****   -0.0540 
      8 C8          0.7270    6.3910    7.5220 C.3     1     ****   -0.0730 
      9 C9          0.7900    7.4060    8.6720 C.3     1     ****   -0.0710 
     10 C10         1.8590    8.4740    8.3880 C.3     1     ****   -0.0470 
     11 C11         1.5300    9.1870    7.0570 C.3     1     ****   -0.0540 
     12 C12         2.4600   10.4090    6.8860 C.3     1     ****   -0.0690 
     13 C13         2.3130   11.4480    8.0240 C.3     1     ****   -0.0650 
     14 C14         1.5610   10.9190    9.2690 C.3     1     ****   -0.0780 
     15 C15         2.0610    9.4880    9.5450 C.3     1     ****   -0.0580 
     16 C16         1.5160    9.2010   10.9490 C.3     1     ****   -0.0710 
     17 C17         1.5190   10.5800   11.6550 C.3     1     ****   -0.0800 
     18 C18         1.8980   11.6340   10.5860 C.3     1     ****    0.1420 
     19 O1          3.2960   11.8800   10.6830 O.3     1     ****   -0.5970 
     20 C19         0.0260   11.0240    9.0280 C.3     1     ****   -0.0840 
     21 F1          0.0720    5.8260    2.7190 F       1     ****   -0.2480 
     22 H1          3.4800   12.7070   10.2070 H       1     ****    0.3980 
     23 H2          3.3490    6.9930    6.5590 H       1     ****    0.0390 
     24 H3          3.0670    6.8720    4.8450 H       1     ****    0.0370 
     25 H4          3.7460    8.3450    5.4970 H       1     ****    0.0370 
     26 H5          0.2670    9.4220    4.6710 H       1     ****    0.0410 
     27 H6          1.9620    9.5780    4.2280 H       1     ****    0.0470 
     28 H7          0.6010    8.4220    2.4940 H       1     ****    0.0510 
     29 H8          1.9460    7.4590    3.0370 H       1     ****    0.0560 
     30 H9         -0.9870    7.1640    3.7910 H       1     ****    0.0470 
     31 H10        -0.3620    5.3070    5.2470 H       1     ****    0.0530 
     32 H11         1.3350    5.4950    4.9040 H       1     ****    0.0590 
     33 H12        -0.5040    7.5570    6.2650 H       1     ****    0.0450 
     34 H13        -0.0880    5.6840    7.7230 H       1     ****    0.0410 
     35 H14         1.6480    5.7970    7.4990 H       1     ****    0.0440 
     36 H15        -0.1960    7.8660    8.8020 H       1     ****    0.0410 
     37 H16         1.0250    6.8650    9.5960 H       1     ****    0.0430 
     38 H17         2.7910    7.8900    8.2990 H       1     ****    0.0480 
     39 H18         0.5150    9.6100    7.0850 H       1     ****    0.0520 
     40 H19         3.5050   10.0800    6.8620 H       1     ****    0.0430 
     41 H20         2.2720   10.9210    5.9370 H       1     ****    0.0400 
     42 H21         3.3270   11.7790    8.2760 H       1     ****    0.0420 
     43 H22         1.8090   12.3440    7.6400 H       1     ****    0.0370 
     44 H23         3.1620    9.4670    9.6820 H       1     ****    0.0580 
     45 H24         0.4940    8.8080   10.9340 H       1     ****    0.0410 
     46 H25         2.1400    8.4780   11.4850 H       1     ****    0.0460 
     47 H26         0.5150   10.7790   12.0480 H       1     ****    0.0450 
     48 H27         2.2210   10.5820   12.4960 H       1     ****    0.0670 
     49 H28         1.3590   12.5750   10.7650 H       1     ****    0.0350 
     50 H29        -0.2260   11.2780    7.9930 H       1     ****    0.0350 
     51 H30        -0.5090   10.1080    9.2900 H       1     ****    0.0420 
     52 H31        -0.4150   11.8280    9.6280 H       1     ****    0.0310 
@<TRIPOS>BOND
     1  2 1 1
     2  3 2 1
     3  4 3 1
     4  5 4 1
     5  6 5 1
     6  7 2 1
     7  7 6 1
     8  8 7 1
     9  9 8 1
    10 10 9 1
    11 11 2 1
    12 11 10 1
    13 12 11 1
    14 13 12 1
    15 14 13 1
    16 15 10 1
    17 15 14 1
    18 16 15 1
    19 17 16 1
    20 18 14 1
    21 18 17 1
    22 19 18 1
    23 20 14 1
    24 21 5 1
    25 22 19 1
    26 23 1 1
    27 24 1 1
    28 25 1 1
    29 26 3 1
    30 27 3 1
    31 28 4 1
    32 29 4 1
    33 30 5 1
    34 31 6 1
    35 32 6 1
    36 33 7 1
    37 34 8 1
    38 35 8 1
    39 36 9 1
    40 37 9 1
    41 38 10 1
    42 39 11 1
    43 40 12 1
    44 41 12 1
    45 42 13 1
    46 43 13 1
    47 44 15 1
    48 45 16 1
    49 46 16 1
    50 47 17 1
    51 48 17 1
    52 49 18 1
    53 50 20 1
    54 51 20 1
    55 52 20 1
@<TRIPOS>SUBSTRUCTURE
1     ****    1
@<TRIPOS>MOLECULE
ZINC00002298
44 47 1 0 0 
SMALL
USER_CHARGES


@<TRIPOS>ATOM
      1 C1         -7.0170    8.4670    2.4850 C.3     1     ****   -0.0800 
      2 C2         -6.8720    8.1470    3.9980 C.3     1     ****   -0.0920 
      3 C3         -8.1470    7.4290    4.4640 C.3     1     ****   -0.0660 
      4 C4         -8.2730    6.0160    3.8550 C.3     1     ****   -0.0700 
      5 C5         -6.9930    5.1480    4.0520 C.3     1     ****   -0.0080 
      6 C6         -7.0740    3.8060    3.3270 C.ar    1     ****   -0.1000 
      7 C7         -8.2940    3.1190    3.1900 C.ar    1     ****   -0.0970 
      8 C8         -8.3590    1.8660    2.5770 C.ar    1     ****   -0.1590 
      9 C9         -7.1980    1.2700    2.1080 C.ar    1     ****    0.1240 
     10 C10        -5.9710    1.9080    2.2520 C.ar    1     ****   -0.2170 
     11 C11        -5.8960    3.1680    2.8730 C.ar    1     ****   -0.0320 
     12 C12        -4.5330    3.8110    2.9810 C.3     1     ****   -0.0370 
     13 C13        -4.4970    5.0570    3.8610 C.3     1     ****   -0.0730 
     14 C14        -5.7350    5.9200    3.5780 C.3     1     ****   -0.0490 
     15 C15        -5.6830    7.2490    4.3360 C.3     1     ****   -0.0590 
     16 C16        -4.4750    8.1690    4.1530 C.3     1     ****   -0.0730 
     17 C17        -5.0070    9.5550    4.5980 C.3     1     ****   -0.0790 
     18 C18        -6.5360    9.4000    4.7970 C.3     1     ****    0.1440 
     19 O1         -7.2140   10.5390    4.2910 O.3     1     ****   -0.5930 
     20 O2         -7.2940    0.0460    1.5110 O.3     1     ****   -0.4990 
     21 H1         -8.1660   10.3940    4.4270 H       1     ****    0.4000 
     22 H2         -6.4040   -0.2370    1.2390 H       1     ****    0.4180 
     23 H3         -6.1500    9.0100    2.0940 H       1     ****    0.0460 
     24 H4         -7.1390    7.5760    1.8640 H       1     ****    0.0400 
     25 H5         -7.8990    9.0930    2.3030 H       1     ****    0.0330 
     26 H6         -8.1410    7.3330    5.5570 H       1     ****    0.0410 
     27 H7         -9.0390    8.0160    4.2120 H       1     ****    0.0380 
     28 H8         -9.1330    5.5370    4.3370 H       1     ****    0.0390 
     29 H9         -8.5200    6.0900    2.7890 H       1     ****    0.0490 
     30 H10        -6.9380    4.9680    5.1410 H       1     ****    0.0550 
     31 H11        -9.2230    3.5390    3.5640 H       1     ****    0.1340 
     32 H12        -9.3170    1.3620    2.4770 H       1     ****    0.1490 
     33 H13        -5.0640    1.4340    1.8850 H       1     ****    0.1320 
     34 H14        -3.8090    3.0840    3.3710 H       1     ****    0.0510 
     35 H15        -4.2120    4.0840    1.9680 H       1     ****    0.0520 
     36 H16        -4.4750    4.7660    4.9190 H       1     ****    0.0450 
     37 H17        -3.5700    5.6060    3.6610 H       1     ****    0.0460 
     38 H18        -5.7370    6.0850    2.4890 H       1     ****    0.0630 
     39 H19        -5.6520    6.9650    5.4060 H       1     ****    0.0470 
     40 H20        -3.6190    7.8580    4.7610 H       1     ****    0.0440 
     41 H21        -4.1500    8.2040    3.1070 H       1     ****    0.0470 
     42 H22        -4.5370    9.8590    5.5400 H       1     ****    0.0470 
     43 H23        -4.7600   10.3200    3.8540 H       1     ****    0.0660 
     44 H24        -6.7420    9.3210    5.8750 H       1     ****    0.0340 
@<TRIPOS>BOND
     1  2 1 1
     2  3 2 1
     3  4 3 1
     4  5 4 1
     5  6 5 1
     6  7 6 ar
     7  8 7 ar
     8  9 8 ar
     9 10 9 ar
    10 11 6 ar
    11 11 10 ar
    12 12 11 1
    13 13 12 1
    14 14 5 1
    15 14 13 1
    16 15 2 1
    17 15 14 1
    18 16 15 1
    19 17 16 1
    20 18 2 1
    21 18 17 1
    22 19 18 1
    23 20 9 1
    24 21 19 1
    25 22 20 1
    26 23 1 1
    27 24 1 1
    28 25 1 1
    29 26 3 1
    30 27 3 1
    31 28 4 1
    32 29 4 1
    33 30 5 1
    34 31 7 1
    35 32 8 1
    36 33 10 1
    37 34 12 1
    38 35 12 1
    39 36 13 1
    40 37 13 1
    41 38 14 1
    42 39 15 1
    43 40 16 1
    44 41 16 1
    45 42 17 1
    46 43 17 1
    47 44 18 1
@<TRIPOS>SUBSTRUCTURE
1     ****    1
@<TRIPOS>MOLECULE
ZINC00002318
27 28 1 0 0 
SMALL
USER_CHARGES


@<TRIPOS>ATOM
      1 C1          3.9270   -9.7810   -0.7420 C.ar    1     ****   -0.1510 
      2 C2          3.4400   -8.9570   -1.7530 C.ar    1     ****   -0.1350 
      3 C3          3.2740   -7.5890   -1.5230 C.ar    1     ****   -0.1280 
      4 C4          3.5910   -7.0170   -0.2780 C.ar    1     ****    0.0050 
      5 C5          4.0800   -7.8690    0.7280 C.ar    1     ****   -0.1320 
      6 C6          4.2470   -9.2370    0.4980 C.ar    1     ****   -0.1360 
      7 C7          3.4150   -5.5730   -0.0350 C.ar    1     ****   -0.1020 
      8 C8          3.8930   -4.6180   -0.9490 C.ar    1     ****   -0.1160 
      9 C9          3.7270   -3.2480   -0.7190 C.ar    1     ****   -0.1420 
     10 C10         3.0800   -2.7940    0.4340 C.ar    1     ****    0.0130 
     11 C11         2.5920   -3.7340    1.3470 C.ar    1     ****   -0.1450 
     12 C12         2.7600   -5.1030    1.1160 C.ar    1     ****   -0.1160 
     13 C13         2.8850   -1.3220    0.6730 C.3     1     ****   -0.1880 
     14 C14         1.5670   -0.8720    0.0530 C.2     1     ****    0.9240 
     15 O1          0.5630   -0.9330    0.8190 O.co2   1     ****   -0.8310 
     16 H1          4.0570  -10.8440   -0.9210 H       1     ****    0.1170 
     17 H2          3.1870   -9.3780   -2.7220 H       1     ****    0.1200 
     18 H3          2.8820   -6.9720   -2.3300 H       1     ****    0.1390 
     19 H4          4.3490   -7.4720    1.7050 H       1     ****    0.1330 
     20 H5          4.6300   -9.8760    1.2890 H       1     ****    0.1180 
     21 H6          4.4120   -4.9300   -1.8530 H       1     ****    0.1140 
     22 H7          4.1060   -2.5380   -1.4500 H       1     ****    0.1420 
     23 H8          2.0710   -3.4070    2.2430 H       1     ****    0.1390 
     24 H9          2.3580   -5.8030    1.8460 H       1     ****    0.1140 
     25 H10         2.8910   -1.1050    1.7480 H       1     ****    0.0380 
     26 H11         3.7190   -0.7520    0.2450 H       1     ****    0.0380 
     27 O2          1.6430   -0.4740   -1.1440 O.co2   1     ****   -0.8330 
@<TRIPOS>BOND
     1  2 1 ar
     2  3 2 ar
     3  4 3 ar
     4  5 4 ar
     5  6 1 ar
     6  6 5 ar
     7  7 4 1
     8  8 7 ar
     9  9 8 ar
    10 10 9 ar
    11 11 10 ar
    12 12 7 ar
    13 12 11 ar
    14 13 10 1
    15 14 13 1
    16 15 14 1
    17 16 1 1
    18 17 2 1
    19 18 3 1
    20 19 5 1
    21 20 6 1
    22 21 8 1
    23 22 9 1
    24 23 11 1
    25 24 12 1
    26 25 13 1
    27 26 13 1
    28 27 14 2
@<TRIPOS>SUBSTRUCTURE
1     ****    1
@<TRIPOS>MOLECULE
ZINC00002436
24 25 1 0 0 
SMALL
USER_CHARGES


@<TRIPOS>ATOM
      1 C1          4.2780   -7.2940    0.2100 C.3     1     ****   -0.0640 
      2 C2          3.2910   -6.1820   -0.0250 C.ar    1     ****    0.0110 
      3 C3          3.7220   -4.8590    0.1150 C.ar    1     ****   -0.2970 
      4 C4          2.8230   -3.8220   -0.0910 C.ar    1     ****    0.6520 
      5 N1          1.5420   -4.0550   -0.4520 N.ar    1     ****   -0.7470 
      6 C5          1.1080   -5.3210   -0.5900 C.ar    1     ****    0.4810 
      7 C6          1.9470   -6.4340   -0.3860 C.ar    1     ****   -0.2150 
      8 C7          1.4110   -7.7290   -0.5540 C.ar    1     ****   -0.0670 
      9 C8          0.0760   -7.9170   -0.9140 C.ar    1     ****   -0.1870 
     10 C9         -0.7580   -6.8210   -1.1100 C.ar    1     ****    0.1570 
     11 C10        -0.2200   -5.5370   -0.9500 C.ar    1     ****   -0.2670 
     12 N2         -2.0810   -6.9930   -1.4850 N.pl3   1     ****   -0.8220 
     13 N3          3.2610   -2.5060    0.0070 N.pl3   1     ****   -0.9280 
     14 H1         -2.4730   -7.9210   -1.5670 H       1     ****    0.3910 
     15 H2         -2.6910   -6.1930   -1.5940 H       1     ****    0.3930 
     16 H3          4.0240   -2.2890    0.6360 H       1     ****    0.3970 
     17 H4          2.5740   -1.7840   -0.1680 H       1     ****    0.4090 
     18 H5          5.2650   -6.9060    0.4820 H       1     ****    0.0450 
     19 H6          3.9410   -7.9350    1.0300 H       1     ****    0.0510 
     20 H7          4.4000   -7.8920   -0.6990 H       1     ****    0.0540 
     21 H8          4.7520   -4.6420    0.3820 H       1     ****    0.1400 
     22 H9          2.0280   -8.6130   -0.4080 H       1     ****    0.1300 
     23 H10        -0.3030   -8.9280   -1.0380 H       1     ****    0.1330 
     24 H11        -0.8640   -4.6730   -1.1110 H       1     ****    0.1480 
@<TRIPOS>BOND
     1  2 1 1
     2  3 2 ar
     3  4 3 ar
     4  5 4 ar
     5  6 5 ar
     6  7 2 ar
     7  7 6 ar
     8  8 7 ar
     9  9 8 ar
    10 10 9 ar
    11 11 6 ar
    12 11 10 ar
    13 12 10 1
    14 13 4 1
    15 14 12 1
    16 15 12 1
    17 16 13 1
    18 17 13 1
    19 18 1 1
    20 19 1 1
    21 20 1 1
    22 21 3 1
    23 22 8 1
    24 23 9 1
    25 24 11 1
@<TRIPOS>SUBSTRUCTURE
1     ****    1
@<TRIPOS>MOLECULE
ZINC00002500
17 17 1 0 0 
SMALL
USER_CHARGES


@<TRIPOS>ATOM
      1 C1          0.9720    2.5440   -0.4530 C.3     1     ****   -0.0510 
      2 C2          0.6550    2.8000    0.9900 C.ar    1     ****   -0.0770 
      3 C3         -0.3300    3.7340    1.3430 C.ar    1     ****   -0.1270 
      4 C4         -0.6520    3.9550    2.6840 C.ar    1     ****   -0.1300 
      5 C5          0.0050    3.2320    3.6740 C.ar    1     ****    0.1060 
      6 C6          0.9750    2.2920    3.3350 C.ar    1     ****    0.0420 
      7 C7          1.3000    2.0680    1.9970 C.ar    1     ****   -0.1710 
      8 O1          1.5940    1.5970    4.3350 O.3     1     ****   -0.5180 
      9 O2         -0.3260    3.4650    4.9790 O.3     1     ****   -0.4950 
     10 H1          2.2370    0.9860    3.9360 H       1     ****    0.4280 
     11 H2          0.2260    2.8760    5.5240 H       1     ****    0.4360 
     12 H3          0.8240    3.4480   -1.0530 H       1     ****    0.0450 
     13 H4          2.0170    2.2410   -0.5760 H       1     ****    0.0420 
     14 H5          0.3250    1.7520   -0.8430 H       1     ****    0.0470 
     15 H6         -0.8530    4.2970    0.5740 H       1     ****    0.1360 
     16 H7         -1.4120    4.6840    2.9460 H       1     ****    0.1530 
     17 H8          2.0510    1.3290    1.7320 H       1     ****    0.1340 
@<TRIPOS>BOND
     1  2 1 1
     2  3 2 ar
     3  4 3 ar
     4  5 4 ar
     5  6 5 ar
     6  7 2 ar
     7  7 6 ar
     8  8 6 1
     9  9 5 1
    10 10 8 1
    11 11 9 1
    12 12 1 1
    13 13 1 1
    14 14 1 1
    15 15 3 1
    16 16 4 1
    17 17 7 1
@<TRIPOS>SUBSTRUCTURE
1     ****    1
@<TRIPOS>MOLECULE
ZINC00002503
17 17 1 0 0 
SMALL
USER_CHARGES


@<TRIPOS>ATOM
      1 C1          6.5100   -7.9520    0.5430 C.3     1     ****   -0.0570 
      2 C2          5.3330   -8.7860    0.1290 C.ar    1     ****   -0.1300 
      3 C3          4.9400   -9.8680    0.9330 C.ar    1     ****   -0.1270 
      4 C4          3.8500  -10.6670    0.5800 C.ar    1     ****   -0.1240 
      5 C5          3.1330  -10.3970   -0.5840 C.ar    1     ****   -0.1880 
      6 C6          3.5130   -9.3260   -1.3900 C.ar    1     ****    0.1020 
      7 C7          4.6030   -8.5240   -1.0410 C.ar    1     ****    0.1020 
      8 O1          4.9220   -7.4870   -1.8780 O.3     1     ****   -0.4760 
      9 O2          2.8190   -9.0470   -2.5360 O.3     1     ****   -0.4760 
     10 H1          5.6910   -7.0080   -1.5310 H       1     ****    0.4160 
     11 H2          2.0990   -9.6940   -2.6300 H       1     ****    0.4140 
     12 H3          6.9490   -8.3090    1.4810 H       1     ****    0.0530 
     13 H4          7.2910   -7.9920   -0.2230 H       1     ****    0.0440 
     14 H5          6.2030   -6.9130    0.6980 H       1     ****    0.0430 
     15 H6          5.4830  -10.1000    1.8470 H       1     ****    0.1340 
     16 H7          3.5610  -11.5000    1.2140 H       1     ****    0.1350 
     17 H8          2.2870  -11.0240   -0.8480 H       1     ****    0.1350 
@<TRIPOS>BOND
     1  2 1 1
     2  3 2 ar
     3  4 3 ar
     4  5 4 ar
     5  6 5 ar
     6  7 2 ar
     7  7 6 ar
     8  8 7 1
     9  9 6 1
    10 10 8 1
    11 11 9 1
    12 12 1 1
    13 13 1 1
    14 14 1 1
    15 15 3 1
    16 16 4 1
    17 17 5 1
@<TRIPOS>SUBSTRUCTURE
1     ****    1
@<TRIPOS>MOLECULE
ZINC00002554
31 33 1 0 0 
SMALL
USER_CHARGES


@<TRIPOS>ATOM
      1 C1          5.6980   -7.9070   -0.1150 C.2     1     ****    0.4960 
      2 N1          5.3810   -6.7940    0.4780 N.2     1     ****   -0.6070 
      3 C2          4.2340   -6.2660   -0.0150 C.2     1     ****    0.0680 
      4 C3          3.4290   -6.7610   -1.0180 C.2     1     ****    0.2030 
      5 C4          3.7910   -7.9960   -1.6680 C.2     1     ****    0.6340 
      6 N2          4.9750   -8.5190   -1.1400 N.am    1     ****   -0.4970 
      7 O1          3.1400   -8.5150   -2.5680 O.2     1     ****   -0.5940 
      8 N3          2.3540   -5.9570   -1.2560 N.2     1     ****   -0.5890 
      9 C5          2.4990   -4.9660   -0.3990 C.2     1     ****    0.3970 
     10 N4          3.6230   -5.1070    0.3820 N.pl3   1     ****   -0.1840 
     11 C6          4.0920   -4.2030    1.4240 C.3     1     ****    0.0530 
     12 C7          2.9760   -3.8620    2.4380 C.3     1     ****   -0.0950 
     13 C8          2.6560   -2.3890    2.2040 C.3     1     ****   -0.0770 
     14 C9          4.0020   -1.8160    1.7620 C.3     1     ****   -0.1120 
     15 C10         4.5540   -2.8730    0.8140 C.3     1     ****   -0.1000 
     16 C11         3.8310   -0.4710    1.0580 C.3     1     ****    0.1340 
     17 O2          5.0980    0.0830    0.7310 O.3     1     ****   -0.5940 
     18 H1          5.3190   -9.3910   -1.5290 H       1     ****    0.3390 
     19 H2          5.5090   -0.4910    0.0620 H       1     ****    0.3990 
     20 H3          6.6020   -8.4700    0.1650 H       1     ****    0.0560 
     21 H4          1.8270   -4.1240   -0.3020 H       1     ****    0.0690 
     22 H5          4.8940   -4.7060    1.9880 H       1     ****    0.0920 
     23 H6          2.0850   -4.4930    2.3650 H       1     ****    0.0630 
     24 H7          3.3730   -3.9800    3.4550 H       1     ****    0.0590 
     25 H8          1.9020   -2.2870    1.4150 H       1     ****    0.0460 
     26 H9          2.2720   -1.9040    3.1070 H       1     ****    0.0560 
     27 H10         4.6320   -1.6830    2.6580 H       1     ****    0.0700 
     28 H11         5.6470   -2.8270    0.7590 H       1     ****    0.0600 
     29 H12         4.1750   -2.7290   -0.2060 H       1     ****    0.0580 
     30 H13         3.2360   -0.5530    0.1420 H       1     ****    0.0270 
     31 H14         3.3230    0.2390    1.7200 H       1     ****    0.0710 
@<TRIPOS>BOND
     1  2 1 2
     2  3 2 1
     3  4 3 ar
     4  5 4 1
     5  6 1 1
     6  6 5 1
     7  7 5 2
     8  8 4 1
     9  9 8 2
    10 10 3 1
    11 10 9 1
    12 11 10 1
    13 12 11 1
    14 13 12 1
    15 14 13 1
    16 15 11 1
    17 15 14 1
    18 16 14 1
    19 17 16 1
    20 18 6 1
    21 19 17 1
    22 20 1 1
    23 21 9 1
    24 22 11 1
    25 23 12 1
    26 24 12 1
    27 25 13 1
    28 26 13 1
    29 27 14 1
    30 28 15 1
    31 29 15 1
    32 30 16 1
    33 31 16 1
@<TRIPOS>SUBSTRUCTURE
1     ****    1
@<TRIPOS>MOLECULE
ZINC00002646
24 25 1 0 0 
SMALL
USER_CHARGES


@<TRIPOS>ATOM
      1 C1          4.3400   -7.5590   -1.1400 C.3     1     ****   -0.0480 
      2 C2          3.1540   -7.7430   -0.2510 C.2     1     ****   -0.0690 
      3 C3          3.0570   -8.7350    0.7080 C.2     1     ****   -0.1960 
      4 S1          1.5770   -8.6900    1.5570 S.2     1     ****    0.2680 
      5 C4          1.0380   -7.3620    0.6450 C.2     1     ****   -0.1040 
      6 C5          1.9810   -6.9080   -0.2470 C.2     1     ****   -0.1090 
      7 N1          1.8830   -5.8380   -1.1510 N.pl3   1     ****   -0.2570 
      8 C6          1.1850   -4.6650   -0.9730 C.cat   1     ****    0.4690 
      9 C7         -0.0110   -2.9120   -0.0320 C.3     1     ****    0.0010 
     10 C8          0.2840   -2.5890   -1.5010 C.3     1     ****   -0.0030 
     11 N2          1.0380   -3.7350   -2.0070 N.pl3   1     ****   -0.3700 
     12 CL1        -0.5900   -6.8620    0.8870 Cl      1     ****   -0.0050 
     13 H1          2.4590   -5.8620   -1.9920 H       1     ****    0.3370 
     14 H2          1.4020   -3.8690   -2.9460 H       1     ****    0.3240 
     15 H3          5.1400   -8.2630   -0.8920 H       1     ****    0.0760 
     16 H4          4.0580   -7.7200   -2.1860 H       1     ****    0.0480 
     17 H5          4.7400   -6.5450   -1.0390 H       1     ****    0.0570 
     18 H6          3.7910   -9.4930    0.9480 H       1     ****    0.2060 
     19 H7         -1.0850   -2.9780    0.1600 H       1     ****    0.0930 
     20 H8          0.4390   -2.1770    0.6410 H       1     ****    0.1040 
     21 H9         -0.6360   -2.4790   -2.0830 H       1     ****    0.1070 
     22 H10         0.8930   -1.6870   -1.6010 H       1     ****    0.0900 
     23 N3          0.6000   -4.2190    0.2090 N.pl3   1     ****   -0.3590 
     24 H11         0.6210   -4.7320    1.0840 H       1     ****    0.3390 
@<TRIPOS>BOND
     1  2 1 1
     2  3 2 2
     3  4 3 1
     4  5 4 1
     5  6 2 1
     6  6 5 2
     7  7 6 1
     8  8 7 1
     9 10 9 1
    10 11 8 1
    11 11 10 1
    12 12 5 1
    13 13 7 1
    14 14 11 1
    15 15 1 1
    16 16 1 1
    17 17 1 1
    18 18 3 1
    19 19 9 1
    20 20 9 1
    21 21 10 1
    22 22 10 1
    23 23 8 1
    24 23 9 1
    25 24 23 1
@<TRIPOS>SUBSTRUCTURE
1     ****    1
@<TRIPOS>MOLECULE
ZINC00003252
23 24 1 0 0 
SMALL
USER_CHARGES


@<TRIPOS>ATOM
      1 C1          5.0590   -8.1540   -1.7520 C.ar    1     ****   -0.1570 
      2 C2          4.6960   -9.4950   -1.6550 C.ar    1     ****   -0.1130 
      3 C3          3.5770   -9.8860   -0.9140 C.ar    1     ****   -0.1450 
      4 C4          2.8390   -8.8830   -0.2760 C.ar    1     ****   -0.0460 
      5 C5          3.1770   -7.5300   -0.3520 C.ar    1     ****   -0.0890 
      6 C6          4.3110   -7.1630   -1.1070 C.ar    1     ****   -0.0840 
      7 C7          2.2090   -6.8020    0.4130 C.2     1     ****   -0.1410 
      8 C8          1.3240   -7.7310    0.9250 C.2     1     ****   -0.0990 
      9 N1          1.7110   -8.9750    0.5060 N.pl3   1     ****   -0.1930 
     10 C9          2.1560   -5.3260    0.6240 C.3     1     ****   -0.0440 
     11 C10         1.4370   -4.6000   -0.5070 C.3     1     ****    0.1280 
     12 O1          1.4010   -3.2040   -0.2420 O.3     1     ****   -0.6010 
     13 H1          1.2380   -9.8370    0.7360 H       1     ****    0.2990 
     14 H2          2.3200   -2.8900   -0.1960 H       1     ****    0.3950 
     15 H3          5.9330   -7.8730   -2.3330 H       1     ****    0.1290 
     16 H4          5.2910  -10.2500   -2.1630 H       1     ****    0.1300 
     17 H5          3.2950  -10.9310   -0.8400 H       1     ****    0.1320 
     18 H6          4.6070   -6.1210   -1.1930 H       1     ****    0.1310 
     19 H7          0.4510   -7.6130    1.5520 H       1     ****    0.1670 
     20 H8          1.6560   -5.1000    1.5750 H       1     ****    0.0550 
     21 H9          3.1720   -4.9260    0.7330 H       1     ****    0.0460 
     22 H10         1.9360   -4.7580   -1.4690 H       1     ****    0.0300 
     23 H11         0.4040   -4.9520   -0.6050 H       1     ****    0.0680 
@<TRIPOS>BOND
     1  2 1 ar
     2  3 2 ar
     3  4 3 ar
     4  5 4 ar
     5  6 1 ar
     6  6 5 ar
     7  7 5 1
     8  8 7 2
     9  9 4 1
    10  9 8 1
    11 10 7 1
    12 11 10 1
    13 12 11 1
    14 13 9 1
    15 14 12 1
    16 15 1 1
    17 16 2 1
    18 17 3 1
    19 18 6 1
    20 19 8 1
    21 20 10 1
    22 21 10 1
    23 22 11 1
    24 23 11 1
@<TRIPOS>SUBSTRUCTURE
1     ****    1
@<TRIPOS>MOLECULE
ZINC00003874
29 31 1 0 0 
SMALL
USER_CHARGES


@<TRIPOS>ATOM
      1 C1          1.9810   -5.3770    3.0290 C.2     1     ****    0.4960 
      2 N1          1.7980   -6.7310    2.7400 N.am    1     ****   -0.4960 
      3 C2          2.2970   -7.3500    1.5900 C.2     1     ****    0.6340 
      4 O1          2.1480   -8.5340    1.3150 O.2     1     ****   -0.5930 
      5 C3          3.0140   -6.4120    0.7620 C.2     1     ****    0.2090 
      6 C4          3.1230   -5.1000    1.1680 C.2     1     ****    0.0640 
      7 N2          2.6260   -4.5230    2.2890 N.2     1     ****   -0.6090 
      8 N3          3.8450   -4.4880    0.1800 N.pl3   1     ****   -0.2090 
      9 C5          4.1240   -5.4500   -0.7610 C.2     1     ****    0.4140 
     10 N4          3.6350   -6.6300   -0.4330 N.2     1     ****   -0.5930 
     11 C6          4.2180   -3.0820    0.1420 C.3     1     ****    0.2580 
     12 C7          3.1570   -2.2100   -0.5320 C.3     1     ****   -0.1160 
     13 C8          3.7020   -2.0420   -1.9320 C.3     1     ****   -0.1060 
     14 C9          5.1980   -2.0180   -1.6620 C.3     1     ****    0.0890 
     15 O2          5.4330   -2.9380   -0.5980 O.3     1     ****   -0.4250 
     16 C10         6.0170   -2.4230   -2.8800 C.3     1     ****    0.1250 
     17 O3          7.4030   -2.2440   -2.6050 O.3     1     ****   -0.5920 
     18 H1          1.2750   -7.3050    3.3940 H       1     ****    0.3390 
     19 H2          7.6000   -2.7480   -1.7970 H       1     ****    0.4150 
     20 H3          1.5130   -5.0760    3.9790 H       1     ****    0.0560 
     21 H4          4.6840   -5.2390   -1.6610 H       1     ****    0.0710 
     22 H5          4.3510   -2.7530    1.1840 H       1     ****    0.1080 
     23 H6          2.1460   -2.6280   -0.5110 H       1     ****    0.0790 
     24 H7          3.1260   -1.2300   -0.0400 H       1     ****    0.0700 
     25 H8          3.4240   -2.9080   -2.5440 H       1     ****    0.0620 
     26 H9          3.3430   -1.1380   -2.4320 H       1     ****    0.0670 
     27 H10         5.4880   -0.9980   -1.3590 H       1     ****    0.0800 
     28 H11         5.8630   -3.4750   -3.1390 H       1     ****    0.0290 
     29 H12         5.7650   -1.8060   -3.7480 H       1     ****    0.0750 
@<TRIPOS>BOND
     1  2 1 1
     2  3 2 1
     3  4 3 2
     4  5 3 1
     5  6 5 ar
     6  7 1 2
     7  7 6 1
     8  8 6 1
     9  9 8 1
    10 10 5 1
    11 10 9 2
    12 11 8 1
    13 12 11 1
    14 13 12 1
    15 14 13 1
    16 15 11 1
    17 15 14 1
    18 16 14 1
    19 17 16 1
    20 18 2 1
    21 19 17 1
    22 20 1 1
    23 21 9 1
    24 22 11 1
    25 23 12 1
    26 24 12 1
    27 25 13 1
    28 26 13 1
    29 27 14 1
    30 28 16 1
    31 29 16 1
@<TRIPOS>SUBSTRUCTURE
1     ****    1
@<TRIPOS>MOLECULE
ZINC00004031
27 27 1 0 0 
SMALL
USER_CHARGES


@<TRIPOS>ATOM
      1 C1          7.0520   -9.6530    0.4200 C.3     1     ****   -0.1040 
      2 C2          6.1430   -8.7060    1.1940 C.3     1     ****   -0.1100 
      3 C3          5.1230   -8.0370    0.2850 C.3     1     ****    0.1200 
      4 C4          5.2140   -9.9950   -1.2730 C.3     1     ****    0.1130 
      5 C5          6.2370  -10.6690   -0.3690 C.3     1     ****   -0.1080 
      6 C6          3.2030   -8.4550   -1.2590 C.3     1     ****    0.0790 
      7 C7          2.1530   -9.4840   -1.6580 C.3     1     ****    0.0770 
      8 H1          0.2910   -9.4710   -2.6040 H       1     ****    0.4990 
      9 H2          0.5600   -8.1120   -1.7010 H       1     ****    0.4790 
     10 H3          7.7240  -10.1720    1.1120 H       1     ****    0.1170 
     11 H4          7.6820   -9.0750   -0.2670 H       1     ****    0.0790 
     12 H5          5.6230   -9.2630    1.9830 H       1     ****    0.0820 
     13 H6          6.7490   -7.9410    1.6920 H       1     ****    0.1270 
     14 H7          4.4220   -7.4400    0.8770 H       1     ****    0.1060 
     15 H8          5.6000   -7.4020   -0.4710 H       1     ****    0.1120 
     16 H9          4.5860  -10.7510   -1.7510 H       1     ****    0.0860 
     17 H10         5.6910   -9.3740   -2.0400 H       1     ****    0.1120 
     18 H11         6.9090  -11.2880   -0.9750 H       1     ****    0.1240 
     19 H12         5.7230  -11.3440    0.3260 H       1     ****    0.0810 
     20 H13         2.7470   -7.6870   -0.6230 H       1     ****    0.1210 
     21 H14         3.6620   -7.9700   -2.1280 H       1     ****    0.1290 
     22 H15         2.5300  -10.2120   -2.3800 H       1     ****    0.1370 
     23 H16         1.7400  -10.0060   -0.7900 H       1     ****    0.1350 
     24 N1          4.3170   -9.0950   -0.4470 N.4     1     ****   -0.6920 
     25 H17         3.8750   -9.6780    0.2780 H       1     ****    0.4540 
     26 N2          1.0150   -8.7960   -2.3220 N.4     1     ****   -0.8350 
     27 H18         1.3080   -8.2970   -3.1730 H       1     ****    0.4800 
@<TRIPOS>BOND
     1  2 1 1
     2  3 2 1
     3  5 1 1
     4  5 4 1
     5  7 6 1
     6 10 1 1
     7 11 1 1
     8 12 2 1
     9 13 2 1
    10 14 3 1
    11 15 3 1
    12 16 4 1
    13 17 4 1
    14 18 5 1
    15 19 5 1
    16 20 6 1
    17 21 6 1
    18 22 7 1
    19 23 7 1
    20 24 3 1
    21 24 4 1
    22 24 6 1
    23 25 24 1
    24 26 7 1
    25 26 8 1
    26 26 9 1
    27 27 26 1
@<TRIPOS>SUBSTRUCTURE
1     ****    1
@<TRIPOS>MOLECULE
ZINC00004194
25 26 1 0 0 
SMALL
USER_CHARGES


@<TRIPOS>ATOM
      1 C1          3.0210   -8.9760    0.1200 C.3     1     ****   -0.1640 
      2 C2          3.7710   -8.2220   -0.9460 C.2     1     ****    0.7060 
      3 O1          4.3880   -8.8180   -1.8300 O.2     1     ****   -0.5460 
      4 N1          3.7030   -6.8290   -0.8410 N.am    1     ****   -0.4610 
      5 C3          3.0670   -5.9280    0.0780 C.2     1     ****    0.8260 
      6 O2          2.4320   -6.2710    1.0660 O.2     1     ****   -0.5910 
      7 N2          3.3680   -4.6250   -0.3740 N.am    1     ****   -0.4050 
      8 C4          4.1640   -4.7140   -1.5250 C.2     1     ****    0.7530 
      9 O3          4.6130   -3.8260   -2.2380 O.2     1     ****   -0.5600 
     10 N3          4.3590   -6.0710   -1.7830 N.am    1     ****   -0.2860 
     11 C5          2.9320   -3.4110    0.2430 C.ar    1     ****    0.0640 
     12 C6          1.9020   -3.4010    1.1990 C.ar    1     ****   -0.1450 
     13 C7          1.4760   -2.2110    1.8020 C.ar    1     ****   -0.1130 
     14 C8          2.0690   -1.0020    1.4640 C.ar    1     ****   -0.1360 
     15 C9          3.0900   -0.9840    0.5220 C.ar    1     ****   -0.1130 
     16 C10         3.5150   -2.1740   -0.0820 C.ar    1     ****   -0.1430 
     17 H1          4.8740   -6.4920   -2.5470 H       1     ****    0.3090 
     18 H2          3.1190  -10.0510   -0.0550 H       1     ****    0.0820 
     19 H3          3.4380   -8.7450    1.1050 H       1     ****    0.0890 
     20 H4          1.9600   -8.7150    0.0890 H       1     ****    0.0870 
     21 H5          1.3750   -4.3040    1.4880 H       1     ****    0.1630 
     22 H6          0.6720   -2.2350    2.5330 H       1     ****    0.1390 
     23 H7          1.7390   -0.0800    1.9310 H       1     ****    0.1380 
     24 H8          3.5650   -0.0440    0.2550 H       1     ****    0.1400 
     25 H9          4.3350   -2.0910   -0.7870 H       1     ****    0.1660 
@<TRIPOS>BOND
     1  2 1 1
     2  3 2 2
     3  4 2 1
     4  5 4 1
     5  6 5 2
     6  7 5 1
     7  8 7 1
     8  9 8 2
     9 10 4 1
    10 10 8 1
    11 11 7 1
    12 12 11 ar
    13 13 12 ar
    14 14 13 ar
    15 15 14 ar
    16 16 11 ar
    17 16 15 ar
    18 17 10 1
    19 18 1 1
    20 19 1 1
    21 20 1 1
    22 21 12 1
    23 22 13 1
    24 23 14 1
    25 24 15 1
    26 25 16 1
@<TRIPOS>SUBSTRUCTURE
1     ****    1
@<TRIPOS>MOLECULE
ZINC00004935
31 33 1 0 0 
SMALL
USER_CHARGES


@<TRIPOS>ATOM
      1 C1          2.8900  -10.5180    0.5650 C.ar    1     ****   -0.1180 
      2 C2          3.4960   -9.2650    0.6060 C.ar    1     ****   -0.1320 
      3 C3          2.9590   -8.2020   -0.1240 C.ar    1     ****   -0.1130 
      4 C4          1.8070   -8.3810   -0.9030 C.ar    1     ****   -0.0970 
      5 C5          1.2080   -9.6500   -0.9370 C.ar    1     ****   -0.0990 
      6 C6          1.7460  -10.7110   -0.2070 C.ar    1     ****   -0.1330 
      7 C7          1.2430   -7.2220   -1.6960 C.3     1     ****    0.1970 
      8 C8          1.4660   -7.4270   -3.1950 C.3     1     ****   -0.2110 
      9 C9          0.8980   -6.2440   -3.9370 C.2     1     ****    0.5940 
     10 O1          1.3700   -5.8750   -5.0060 O.2     1     ****   -0.5120 
     11 C10        -0.2990   -5.6060   -3.3310 C.ar    1     ****   -0.3060 
     12 C11        -0.9920   -4.5580   -3.9500 C.ar    1     ****    0.2450 
     13 C12        -2.1470   -4.0320   -3.3650 C.ar    1     ****   -0.3020 
     14 C13        -2.6110   -4.5630   -2.1650 C.ar    1     ****    0.2210 
     15 C14        -1.9340   -5.6030   -1.5340 C.ar    1     ****   -0.2970 
     16 C15        -0.7680   -6.1110   -2.1100 C.ar    1     ****    0.2340 
     17 O2         -0.1560   -7.1300   -1.4250 O.3     1     ****   -0.3200 
     18 O3         -3.7490   -4.0330   -1.6250 O.3     1     ****   -0.4890 
     19 O4         -0.5540   -4.0390   -5.1370 O.3     1     ****   -0.4550 
     20 H1         -3.9480   -4.5010   -0.7960 H       1     ****    0.4290 
     21 H2         -1.1550   -3.3280   -5.4170 H       1     ****    0.4240 
     22 H3          3.3080  -11.3440    1.1330 H       1     ****    0.1340 
     23 H4          4.3890   -9.1130    1.2060 H       1     ****    0.1350 
     24 H5          3.4500   -7.2330   -0.0800 H       1     ****    0.1340 
     25 H6          0.3150   -9.8210   -1.5340 H       1     ****    0.1420 
     26 H7          1.2720  -11.6880   -0.2410 H       1     ****    0.1350 
     27 H8          1.7520   -6.2880   -1.3950 H       1     ****    0.0640 
     28 H9          2.5360   -7.5030   -3.4150 H       1     ****    0.0900 
     29 H10         0.9620   -8.3240   -3.5720 H       1     ****    0.0870 
     30 H11        -2.6900   -3.2190   -3.8400 H       1     ****    0.1580 
     31 H12        -2.2980   -6.0120   -0.5960 H       1     ****    0.1580 
@<TRIPOS>BOND
     1  2 1 ar
     2  3 2 ar
     3  4 3 ar
     4  5 4 ar
     5  6 1 ar
     6  6 5 ar
     7  7 4 1
     8  8 7 1
     9  9 8 1
    10 10 9 2
    11 11 9 1
    12 12 11 ar
    13 13 12 ar
    14 14 13 ar
    15 15 14 ar
    16 16 11 ar
    17 16 15 ar
    18 17 7 1
    19 17 16 1
    20 18 14 1
    21 19 12 1
    22 20 18 1
    23 21 19 1
    24 22 1 1
    25 23 2 1
    26 24 3 1
    27 25 5 1
    28 26 6 1
    29 27 7 1
    30 28 8 1
    31 29 8 1
    32 30 13 1
    33 31 15 1
@<TRIPOS>SUBSTRUCTURE
1     ****    1
@<TRIPOS>MOLECULE
ZINC00005559
24 25 1 0 0 
SMALL
USER_CHARGES


@<TRIPOS>ATOM
      1 C1          4.9860   -7.1800    0.7580 C.ar    1     ****   -0.1000 
      2 C2          4.5800   -8.5060    0.7330 C.ar    1     ****   -0.2370 
      3 C3          3.2580   -8.7650    0.4300 C.ar    1     ****    0.3930 
      4 N1          2.3410   -7.8080    0.1580 N.ar    1     ****   -0.6600 
      5 C4          2.7440   -6.5100    0.1850 C.ar    1     ****    0.3450 
      6 C5          4.0660   -6.1690    0.4830 C.ar    1     ****   -0.2050 
      7 C6          1.7110   -5.4990   -0.1180 C.ar    1     ****    0.3550 
      8 C7          0.3860   -5.8350   -0.3960 C.ar    1     ****   -0.1930 
      9 C8         -0.5300   -4.8210   -0.6670 C.ar    1     ****   -0.1040 
     10 C9         -0.1200   -3.4950   -0.6620 C.ar    1     ****   -0.1880 
     11 C10         1.2140   -3.2310   -0.3840 C.ar    1     ****    0.3740 
     12 N2          2.1210   -4.2030   -0.1110 N.ar    1     ****   -0.6570 
     13 C11         1.7420   -1.8420   -0.3600 C.2     1     ****    0.3330 
     14 S1          3.0230   -1.3420    0.6030 S.2     1     ****   -0.4800 
     15 N3          1.1300   -0.9350   -1.1970 N.am    1     ****   -0.5730 
     16 H1          1.4490    0.0280   -1.2220 H       1     ****    0.3270 
     17 H2          0.3810   -1.1750   -1.8370 H       1     ****    0.3190 
     18 H3          6.0160   -6.9280    0.9920 H       1     ****    0.1430 
     19 H4          5.2760   -9.3100    0.9430 H       1     ****    0.1450 
     20 H5          2.8840   -9.7840    0.3950 H       1     ****    0.0240 
     21 H6          4.3980   -5.1360    0.5070 H       1     ****    0.1620 
     22 H7          0.0480   -6.8670   -0.4030 H       1     ****    0.1640 
     23 H8         -1.5670   -5.0700   -0.8780 H       1     ****    0.1480 
     24 H9         -0.8430   -2.7110   -0.8550 H       1     ****    0.1640 
@<TRIPOS>BOND
     1  2 1 ar
     2  3 2 ar
     3  4 3 ar
     4  5 4 ar
     5  6 1 ar
     6  6 5 ar
     7  7 5 1
     8  8 7 ar
     9  9 8 ar
    10 10 9 ar
    11 11 10 ar
    12 12 7 ar
    13 12 11 ar
    14 13 11 1
    15 14 13 2
    16 15 13 1
    17 16 15 1
    18 17 15 1
    19 18 1 1
    20 19 2 1
    21 20 3 1
    22 21 6 1
    23 22 8 1
    24 23 9 1
    25 24 10 1
@<TRIPOS>SUBSTRUCTURE
1     ****    1
@<TRIPOS>MOLECULE
ZINC00006329
31 33 1 0 0 
SMALL
USER_CHARGES


@<TRIPOS>ATOM
      1 C1          8.5440   -9.8660    0.7760 C.3     1     ****   -0.0570 
      2 C2          7.1320   -9.3820    0.9230 C.ar    1     ****   -0.0880 
      3 C3          6.0760  -10.1020    0.3540 C.ar    1     ****   -0.0930 
      4 C4          4.7670   -9.6350    0.4630 C.ar    1     ****   -0.1450 
      5 C5          4.5010   -8.4400    1.1330 C.ar    1     ****   -0.0720 
      6 C6          5.5480   -7.6990    1.6960 C.ar    1     ****   -0.1600 
      7 C7          6.8630   -8.1730    1.5820 C.ar    1     ****   -0.0740 
      8 C8          5.2290   -6.4280    2.3940 C.2     1     ****    0.7330 
      9 N1          4.0280   -5.9590    2.4830 N.2     1     ****   -0.6490 
     10 C9          3.8620   -4.7550    3.1660 C.ar    1     ****    0.2380 
     11 C10         2.5820   -4.2030    3.2890 C.ar    1     ****   -0.1330 
     12 C11         2.3870   -2.9990    3.9680 C.ar    1     ****   -0.0320 
     13 C12         3.4900   -2.3470    4.5270 C.ar    1     ****   -0.2060 
     14 C13         4.7770   -2.8810    4.4150 C.ar    1     ****    0.0150 
     15 C14         4.9460   -4.0890    3.7290 C.ar    1     ****   -0.2310 
     16 C15         6.2820   -4.6870    3.5850 C.2     1     ****    0.7390 
     17 O1          7.2750   -4.1490    4.0570 O.2     1     ****   -0.5410 
     18 O2          6.3510   -5.8610    2.9040 O.3     1     ****   -0.4520 
     19 N2          3.2940   -1.0890    5.2380 N.2     1     ****    0.3170 
     20 O3          2.2730   -0.4360    4.9810 O.2     1     ****   -0.2050 
     21 O4          4.1600   -0.7500    6.0560 O.3     1     ****   -0.1990 
     22 H1          8.5790  -10.9580    0.7030 H       1     ****    0.0470 
     23 H2          8.9950   -9.4370   -0.1250 H       1     ****    0.0530 
     24 H3          9.1470   -9.5810    1.6450 H       1     ****    0.0510 
     25 H4          6.2660  -11.0310   -0.1780 H       1     ****    0.1400 
     26 H5          3.9510  -10.2020    0.0240 H       1     ****    0.1420 
     27 H6          3.4700   -8.1030    1.2010 H       1     ****    0.1580 
     28 H7          7.6970   -7.6150    2.0010 H       1     ****    0.1610 
     29 H8          1.7260   -4.7140    2.8540 H       1     ****    0.1710 
     30 H9          1.3800   -2.6000    4.0510 H       1     ****    0.1770 
     31 H10         5.6360   -2.3730    4.8430 H       1     ****    0.1930 
@<TRIPOS>BOND
     1  2 1 1
     2  3 2 ar
     3  4 3 ar
     4  5 4 ar
     5  6 5 ar
     6  7 2 ar
     7  7 6 ar
     8  8 6 1
     9  9 8 2
    10 10 9 1
    11 11 10 ar
    12 12 11 ar
    13 13 12 ar
    14 14 13 ar
    15 15 10 ar
    16 15 14 ar
    17 16 15 1
    18 17 16 2
    19 18 8 1
    20 18 16 1
    21 19 13 1
    22 20 19 2
    23 21 19 1
    24 22 1 1
    25 23 1 1
    26 24 1 1
    27 25 3 1
    28 26 4 1
    29 27 5 1
    30 28 7 1
    31 29 11 1
    32 30 12 1
    33 31 14 1
@<TRIPOS>SUBSTRUCTURE
1     ****    1
@<TRIPOS>MOLECULE
ZINC00006364
16 16 1 0 0 
SMALL
USER_CHARGES


@<TRIPOS>ATOM
      1 C1          5.9940   -9.3940   -1.2100 C.ar    1     ****   -0.1870 
      2 C2          4.9950  -10.2820   -1.6190 C.ar    1     ****   -0.0960 
      3 C3          3.7210  -10.1750   -1.0740 C.ar    1     ****    0.0700 
      4 C4          3.4420   -9.1940   -0.1280 C.ar    1     ****    0.0770 
      5 C5          4.4380   -8.3070    0.2810 C.ar    1     ****   -0.2330 
      6 C6          5.7260   -8.3950   -0.2640 C.ar    1     ****    0.1380 
      7 N1          6.7270   -7.5290    0.1490 N.pl3   1     ****   -0.8130 
      8 O1          2.1780   -9.1210    0.3880 O.3     1     ****   -0.5170 
      9 O2          2.7590  -11.0530   -1.4870 O.3     1     ****   -0.4970 
     10 H1          6.5260   -6.7890    0.8080 H       1     ****    0.3850 
     11 H2          7.6470   -7.5750   -0.2680 H       1     ****    0.3880 
     12 H3          2.1480   -8.3900    1.0300 H       1     ****    0.4280 
     13 H4          1.9420  -10.8320   -1.0050 H       1     ****    0.4330 
     14 H5          6.9890   -9.4880   -1.6400 H       1     ****    0.1360 
     15 H6          5.2190  -11.0480   -2.3550 H       1     ****    0.1520 
     16 H7          4.2160   -7.5430    1.0230 H       1     ****    0.1350 
@<TRIPOS>BOND
     1  2 1 ar
     2  3 2 ar
     3  4 3 ar
     4  5 4 ar
     5  6 1 ar
     6  6 5 ar
     7  7 6 1
     8  8 4 1
     9  9 3 1
    10 10 7 1
    11 11 7 1
    12 12 8 1
    13 13 9 1
    14 14 1 1
    15 15 2 1
    16 16 5 1
@<TRIPOS>SUBSTRUCTURE
1     ****    1
@<TRIPOS>MOLECULE
ZINC00006421
26 27 1 0 0 
SMALL
USER_CHARGES


@<TRIPOS>ATOM
      1 C1          4.0060   -8.2450   -2.7290 C.3     1     ****   -0.1750 
      2 C2          2.9990   -8.2460   -1.6110 C.2     1     ****    0.6560 
      3 O1          2.6520   -9.2800   -1.0470 O.2     1     ****   -0.6080 
      4 N1          2.5520   -6.9740   -1.3000 N.am    1     ****   -0.5670 
      5 C3          1.5930   -6.7280   -0.2320 C.3     1     ****    0.1470 
      6 C4          2.3130   -6.6310    1.1310 C.3     1     ****   -0.1010 
      7 C5          1.5110   -5.6210    1.9640 C.3     1     ****   -0.0380 
      8 C6          0.9370   -4.7420    0.8950 C.ar    1     ****   -0.0780 
      9 C7          0.9790   -5.3720   -0.3560 C.ar    1     ****   -0.1100 
     10 C8          0.4400   -4.7580   -1.4760 C.ar    1     ****   -0.1040 
     11 C9         -0.1240   -3.4880   -1.3340 C.ar    1     ****   -0.1360 
     12 C10        -0.1580   -2.8570   -0.0810 C.ar    1     ****   -0.1240 
     13 C11         0.3680   -3.4880    1.0480 C.ar    1     ****   -0.1220 
     14 H1          2.9410   -6.1780   -1.7960 H       1     ****    0.3080 
     15 H2          4.1180   -9.2590   -3.1230 H       1     ****    0.0780 
     16 H3          3.6770   -7.5900   -3.5410 H       1     ****    0.0630 
     17 H4          4.9700   -7.8970   -2.3480 H       1     ****    0.0560 
     18 H5          0.8630   -7.5500   -0.2040 H       1     ****    0.0980 
     19 H6          2.3980   -7.6040    1.6280 H       1     ****    0.0590 
     20 H7          3.3370   -6.2520    0.9990 H       1     ****    0.0470 
     21 H8          0.7050   -6.1150    2.5160 H       1     ****    0.0580 
     22 H9          2.1560   -5.0720    2.6550 H       1     ****    0.0540 
     23 H10         0.4470   -5.2480   -2.4450 H       1     ****    0.1390 
     24 H11        -0.5480   -2.9860   -2.2000 H       1     ****    0.1320 
     25 H12        -0.6070   -1.8710    0.0120 H       1     ****    0.1310 
     26 H13         0.3260   -3.0050    2.0190 H       1     ****    0.1350 
@<TRIPOS>BOND
     1  2 1 1
     2  3 2 2
     3  4 2 1
     4  5 4 1
     5  6 5 1
     6  7 6 1
     7  8 7 1
     8  9 5 1
     9  9 8 ar
    10 10 9 ar
    11 11 10 ar
    12 12 11 ar
    13 13 8 ar
    14 13 12 ar
    15 14 4 1
    16 15 1 1
    17 16 1 1
    18 17 1 1
    19 18 5 1
    20 19 6 1
    21 20 6 1
    22 21 7 1
    23 22 7 1
    24 23 10 1
    25 24 11 1
    26 25 12 1
    27 26 13 1
@<TRIPOS>SUBSTRUCTURE
1     ****    1
@<TRIPOS>MOLECULE
ZINC00006701
29 31 1 0 0 
SMALL
USER_CHARGES


@<TRIPOS>ATOM
      1 C1          7.8500   -7.7770    0.0670 C.3     1     ****   -0.0480 
      2 C2          6.3630   -7.5470    0.0180 C.ar    1     ****   -0.1450 
      3 C3          5.8710   -6.2320    0.1430 C.ar    1     ****   -0.0710 
      4 C4          4.4960   -5.9540    0.1110 C.ar    1     ****   -0.1720 
      5 C5          3.6140   -7.0320   -0.0350 C.ar    1     ****   -0.0430 
      6 C6          4.0910   -8.3400   -0.1610 C.ar    1     ****   -0.2060 
      7 C7          5.4640   -8.6150   -0.1490 C.ar    1     ****    0.1690 
      8 N1          5.8940   -9.9320   -0.2510 N.pl3   1     ****   -0.8260 
      9 C8          3.9460   -4.5920    0.2440 C.2     1     ****    0.4470 
     10 N2          2.7090   -4.3370    0.6220 N.2     1     ****   -0.5330 
     11 C9          2.4690   -2.9720    0.6410 C.ar    1     ****    0.0900 
     12 C10         1.2590   -2.3440    1.0040 C.ar    1     ****   -0.0780 
     13 C11         1.1660   -0.9500    0.9730 C.ar    1     ****   -0.1310 
     14 C12         2.2560   -0.1780    0.5870 C.ar    1     ****   -0.1240 
     15 C13         3.4650   -0.7770    0.2230 C.ar    1     ****   -0.0900 
     16 C14         3.5490   -2.1780    0.2570 C.ar    1     ****   -0.0890 
     17 S1          4.8800   -3.1950   -0.1320 S.2     1     ****   -0.0600 
     18 H1          5.2250  -10.6720   -0.4180 H       1     ****    0.3980 
     19 H2          6.8780  -10.1540   -0.3020 H       1     ****    0.3990 
     20 H3          8.4000   -6.8400    0.2050 H       1     ****    0.0460 
     21 H4          8.1050   -8.4350    0.9040 H       1     ****    0.0490 
     22 H5          8.1950   -8.2260   -0.8700 H       1     ****    0.0340 
     23 H6          6.5910   -5.4270    0.2800 H       1     ****    0.1370 
     24 H7          2.5380   -6.8710   -0.0570 H       1     ****    0.1530 
     25 H8          3.3730   -9.1490   -0.2710 H       1     ****    0.1360 
     26 H9          0.4030   -2.9410    1.3060 H       1     ****    0.1500 
     27 H10         0.2330   -0.4670    1.2530 H       1     ****    0.1350 
     28 H11         2.1690    0.9060    0.5680 H       1     ****    0.1340 
     29 H12         4.3130   -0.1690   -0.0790 H       1     ****    0.1380 
@<TRIPOS>BOND
     1  2 1 1
     2  3 2 ar
     3  4 3 ar
     4  5 4 ar
     5  6 5 ar
     6  7 2 ar
     7  7 6 ar
     8  8 7 1
     9  9 4 1
    10 10 9 2
    11 11 10 1
    12 12 11 ar
    13 13 12 ar
    14 14 13 ar
    15 15 14 ar
    16 16 11 ar
    17 16 15 ar
    18 17 9 1
    19 17 16 1
    20 18 8 1
    21 19 8 1
    22 20 1 1
    23 21 1 1
    24 22 1 1
    25 23 3 1
    26 24 5 1
    27 25 6 1
    28 26 12 1
    29 27 13 1
    30 28 14 1
    31 29 15 1
@<TRIPOS>SUBSTRUCTURE
1     ****    1
@<TRIPOS>MOLECULE
ZINC00007700
24 25 1 0 0 
SMALL
USER_CHARGES


@<TRIPOS>ATOM
      1 C1          5.0720   -7.1940    0.8260 C.ar    1     ****   -0.1740 
      2 C2          4.5270   -8.4670    0.6810 C.ar    1     ****   -0.1240 
      3 C3          3.2060   -8.6400    0.2590 C.ar    1     ****   -0.1600 
      4 C4          2.4550   -7.4900   -0.0120 C.ar    1     ****   -0.0580 
      5 C5          2.9730   -6.2000    0.1240 C.ar    1     ****   -0.0860 
      6 C6          4.3090   -6.0530    0.5520 C.ar    1     ****   -0.0680 
      7 C7          1.9330   -5.2800   -0.2330 C.2     1     ****   -0.0700 
      8 C8          0.8290   -6.0390   -0.5700 C.2     1     ****   -0.1570 
      9 N1          1.1530   -7.3600   -0.4340 N.pl3   1     ****   -0.1940 
     10 C9          2.0150   -3.7870   -0.2430 C.3     1     ****   -0.0140 
     11 C10         1.7280   -3.1820    1.1270 C.3     1     ****   -0.1900 
     12 C11         1.7960   -1.6540    1.1840 C.2     1     ****    0.9070 
     13 O1          2.0910   -1.0600    0.1110 O.co2   1     ****   -0.8530 
     14 H1          0.5260   -8.1320   -0.6160 H       1     ****    0.2680 
     15 H2          6.1020   -7.0830    1.1570 H       1     ****    0.1190 
     16 H3          5.1360   -9.3400    0.8990 H       1     ****    0.1130 
     17 H4          2.7820   -9.6320    0.1460 H       1     ****    0.1180 
     18 H5          4.7470   -5.0670    0.6720 H       1     ****    0.1490 
     19 H6         -0.1610   -5.7480   -0.8950 H       1     ****    0.1620 
     20 H7          3.0120   -3.4820   -0.5870 H       1     ****    0.0580 
     21 H8          1.3040   -3.3910   -0.9800 H       1     ****    0.0570 
     22 H9          0.7280   -3.4850    1.4630 H       1     ****    0.0230 
     23 H10         2.4420   -3.5740    1.8630 H       1     ****    0.0260 
     24 O2          1.5430   -1.1680    2.3240 O.co2   1     ****   -0.8500 
@<TRIPOS>BOND
     1  2 1 ar
     2  3 2 ar
     3  4 3 ar
     4  5 4 ar
     5  6 1 ar
     6  6 5 ar
     7  7 5 1
     8  8 7 2
     9  9 4 1
    10  9 8 1
    11 10 7 1
    12 11 10 1
    13 12 11 1
    14 13 12 1
    15 14 9 1
    16 15 1 1
    17 16 2 1
    18 17 3 1
    19 18 6 1
    20 19 8 1
    21 20 10 1
    22 21 10 1
    23 22 11 1
    24 23 11 1
    25 24 12 2
@<TRIPOS>SUBSTRUCTURE
1     ****    1
@<TRIPOS>MOLECULE
ZINC00008702
29 31 1 0 0 
SMALL
USER_CHARGES


@<TRIPOS>ATOM
      1 C1          7.5500   -7.3220    0.1960 C.3     1     ****   -0.0480 
      2 C2          6.0670   -7.1820    0.4130 C.ar    1     ****   -0.1460 
      3 C3          5.5400   -5.9140    0.7300 C.ar    1     ****   -0.0690 
      4 C4          4.1670   -5.7200    0.9500 C.ar    1     ****   -0.1780 
      5 C5          3.3270   -6.8370    0.8590 C.ar    1     ****   -0.0390 
      6 C6          3.8390   -8.0990    0.5450 C.ar    1     ****   -0.2070 
      7 C7          5.2050   -8.2880    0.3060 C.ar    1     ****    0.1740 
      8 N1          5.6750   -9.5640    0.0220 N.pl3   1     ****   -0.8280 
      9 C8          3.5820   -4.4100    1.2890 C.2     1     ****    0.4540 
     10 N2          2.4160   -4.2610    1.8860 N.2     1     ****   -0.5360 
     11 C9          2.1170   -2.9200    2.0620 C.ar    1     ****    0.1150 
     12 C10         0.9560   -2.4010    2.6720 C.ar    1     ****   -0.1190 
     13 C11         0.8040   -1.0180    2.7710 C.ar    1     ****    0.1250 
     14 C12         1.7660   -0.1450    2.2830 C.ar    1     ****   -0.1600 
     15 C13         2.9220   -0.6390    1.6750 C.ar    1     ****   -0.0640 
     16 C14         3.0770   -2.0330    1.5750 C.ar    1     ****   -0.1110 
     17 S1          4.3700   -2.9320    0.8870 S.2     1     ****   -0.0450 
     18 F1         -0.2980   -0.5220    3.3510 F       1     ****   -0.1400 
     19 H1          5.0250  -10.3290   -0.0960 H       1     ****    0.4010 
     20 H2          6.6470   -9.7190   -0.2100 H       1     ****    0.4020 
     21 H3          8.0700   -6.3660    0.3220 H       1     ****    0.0460 
     22 H4          7.9750   -8.0250    0.9200 H       1     ****    0.0490 
     23 H5          7.7520   -7.6750   -0.8200 H       1     ****    0.0340 
     24 H6          6.2320   -5.0780    0.8160 H       1     ****    0.1360 
     25 H7          2.2560   -6.7420    1.0300 H       1     ****    0.1540 
     26 H8          3.1520   -8.9410    0.4860 H       1     ****    0.1370 
     27 H9          0.1910   -3.0660    3.0600 H       1     ****    0.1670 
     28 H10         1.6190    0.9270    2.3750 H       1     ****    0.1520 
     29 H11         3.6770    0.0390    1.2910 H       1     ****    0.1440 
@<TRIPOS>BOND
     1  2 1 1
     2  3 2 ar
     3  4 3 ar
     4  5 4 ar
     5  6 5 ar
     6  7 2 ar
     7  7 6 ar
     8  8 7 1
     9  9 4 1
    10 10 9 2
    11 11 10 1
    12 12 11 ar
    13 13 12 ar
    14 14 13 ar
    15 15 14 ar
    16 16 11 ar
    17 16 15 ar
    18 17 9 1
    19 17 16 1
    20 18 13 1
    21 19 8 1
    22 20 8 1
    23 21 1 1
    24 22 1 1
    25 23 1 1
    26 24 3 1
    27 25 5 1
    28 26 6 1
    29 27 12 1
    30 28 14 1
    31 29 15 1
@<TRIPOS>SUBSTRUCTURE
1     ****    1
@<TRIPOS>MOLECULE
ZINC00009073
38 41 1 0 0 
SMALL
USER_CHARGES


@<TRIPOS>ATOM
      1 C1         -0.2880    1.4160    2.8910 C.3     1     ****    0.0810 
      2 C2         -0.8700    2.1300    0.5480 C.3     1     ****    0.1160 
      3 C3          0.2340    3.1770    0.4940 C.3     1     ****   -0.0560 
      4 C4          1.6130    2.5960    0.3130 C.ar    1     ****   -0.0890 
      5 C5          2.6630    3.4530   -0.0190 C.ar    1     ****   -0.1100 
      6 C6          3.9470    2.9510   -0.1580 C.ar    1     ****   -0.0910 
      7 C7          4.1880    1.5860    0.0180 C.ar    1     ****   -0.1150 
      8 C8          3.1650    0.6610    0.3370 C.ar    1     ****    0.0060 
      9 C9          1.8710    1.2220    0.5250 C.ar    1     ****   -0.1290 
     10 C10         0.7250    0.2790    0.8400 C.3     1     ****    0.1910 
     11 C11         1.1920   -0.8500    1.7700 C.3     1     ****   -0.0380 
     12 C12         2.4160   -1.5310    1.1920 C.ar    1     ****   -0.1210 
     13 C13         3.3840   -0.7650    0.4940 C.ar    1     ****   -0.0540 
     14 C14         4.5050   -1.5150    0.0270 C.ar    1     ****    0.0440 
     15 C15         4.6770   -2.8760    0.3150 C.ar    1     ****    0.1480 
     16 C16         3.7300   -3.5730    1.0410 C.ar    1     ****   -0.1270 
     17 C17         2.5940   -2.9020    1.4710 C.ar    1     ****   -0.0900 
     18 O1          5.7730   -3.5590   -0.1380 O.3     1     ****   -0.4730 
     19 O2          5.4560   -0.9800   -0.8090 O.3     1     ****   -0.5130 
     20 H1          6.3260   -2.9220   -0.6250 H       1     ****    0.4500 
     21 H2          5.0090   -0.3540   -1.4030 H       1     ****    0.4330 
     22 H3         -0.3400    0.5240    3.5210 H       1     ****    0.1010 
     23 H4          0.6710    1.9260    3.0020 H       1     ****    0.1160 
     24 H5         -1.1140    2.0820    3.1580 H       1     ****    0.0970 
     25 H6         -1.0670    1.7000   -0.4410 H       1     ****    0.1050 
     26 H7         -1.8080    2.5530    0.9260 H       1     ****    0.1000 
     27 H8          0.0150    3.8670   -0.3310 H       1     ****    0.1050 
     28 H9          0.2290    3.7690    1.4170 H       1     ****    0.0800 
     29 H10         2.4860    4.5160   -0.1600 H       1     ****    0.1550 
     30 H11         4.7690    3.6200   -0.3960 H       1     ****    0.1630 
     31 H12         5.2260    1.2700   -0.0590 H       1     ****    0.1760 
     32 H13         0.3990   -0.1970   -0.1060 H       1     ****    0.1090 
     33 H14         1.4850   -0.4820    2.7600 H       1     ****    0.0780 
     34 H15         0.3770   -1.5720    1.9030 H       1     ****    0.0640 
     35 H16         3.8610   -4.6280    1.2620 H       1     ****    0.1750 
     36 H17         1.8460   -3.4470    2.0410 H       1     ****    0.1460 
     37 N1         -0.4860    0.9860    1.4480 N.4     1     ****   -0.6800 
     38 H18        -1.2890    0.3360    1.5070 H       1     ****    0.4470 
@<TRIPOS>BOND
     1  3 2 1
     2  4 3 1
     3  5 4 ar
     4  6 5 ar
     5  7 6 ar
     6  8 7 ar
     7  9 4 ar
     8  9 8 ar
     9 10 9 1
    10 11 10 1
    11 12 11 1
    12 13 8 1
    13 13 12 ar
    14 14 13 ar
    15 15 14 ar
    16 16 15 ar
    17 17 12 ar
    18 17 16 ar
    19 18 15 1
    20 19 14 1
    21 20 18 1
    22 21 19 1
    23 22 1 1
    24 23 1 1
    25 24 1 1
    26 25 2 1
    27 26 2 1
    28 27 3 1
    29 28 3 1
    30 29 5 1
    31 30 6 1
    32 31 7 1
    33 32 10 1
    34 33 11 1
    35 34 11 1
    36 35 16 1
    37 36 17 1
    38 37 1 1
    39 37 2 1
    40 37 10 1
    41 38 37 1
@<TRIPOS>SUBSTRUCTURE
1     ****    1
@<TRIPOS>MOLECULE
ZINC00009685
23 24 1 0 0 
SMALL
USER_CHARGES


@<TRIPOS>ATOM
      1 C1          2.9350   -7.0060    0.7550 C.ar    1     ****   -0.0600 
      2 C2          2.8220   -8.2460    0.1240 C.ar    1     ****   -0.2250 
      3 C3          2.7390   -8.3050   -1.2650 C.ar    1     ****    0.1490 
      4 C4          2.7700   -7.1420   -2.0300 C.ar    1     ****   -0.1640 
      5 C5          2.8840   -5.9030   -1.3990 C.ar    1     ****   -0.0390 
      6 C6          2.9590   -5.8270   -0.0010 C.ar    1     ****   -0.1460 
      7 C7          3.0950   -4.5360    0.6790 C.2     1     ****    0.0710 
      8 C8          2.1510   -3.5900    0.7340 C.2     1     ****   -0.3230 
      9 C9          0.7840   -3.5840    0.1790 C.2     1     ****    0.5660 
     10 O1          0.2140   -4.4510   -0.4510 O.2     1     ****   -0.5020 
     11 C10         0.2090   -2.2770    0.5580 C.2     1     ****   -0.1900 
     12 C11         1.0910   -1.5590    1.2650 C.2     1     ****   -0.1910 
     13 C12         2.3520   -2.3060    1.4330 C.2     1     ****    0.5580 
     14 O2          3.3380   -1.9220    2.0280 O.2     1     ****   -0.5050 
     15 O3          2.6270   -9.5020   -1.9150 O.3     1     ****   -0.4910 
     16 H1          2.6150  -10.2130   -1.2530 H       1     ****    0.4220 
     17 H2          3.0010   -6.9690    1.8400 H       1     ****    0.1370 
     18 H3          2.8000   -9.1510    0.7240 H       1     ****    0.1370 
     19 H4          2.7080   -7.1940   -3.1140 H       1     ****    0.1580 
     20 H5          2.9120   -5.0010   -2.0060 H       1     ****    0.1540 
     21 H6          4.0500   -4.3830    1.1760 H       1     ****    0.1480 
     22 H7         -0.7910   -1.9770    0.2880 H       1     ****    0.1680 
     23 H8          0.9340   -0.5710    1.6690 H       1     ****    0.1680 
@<TRIPOS>BOND
     1  2 1 ar
     2  3 2 ar
     3  4 3 ar
     4  5 4 ar
     5  6 1 ar
     6  6 5 ar
     7  7 6 1
     8  8 7 2
     9  9 8 1
    10 10 9 2
    11 11 9 1
    12 12 11 2
    13 13 8 1
    14 13 12 1
    15 14 13 2
    16 15 3 1
    17 16 15 1
    18 17 1 1
    19 18 2 1
    20 19 4 1
    21 20 5 1
    22 21 7 1
    23 22 11 1
    24 23 12 1
@<TRIPOS>SUBSTRUCTURE
1     ****    1
@<TRIPOS>MOLECULE
ZINC00010573
17 17 1 0 0 
SMALL
USER_CHARGES


@<TRIPOS>ATOM
      1 C1          2.6980    2.9240    2.4910 C.ar    1     ****   -0.0970 
      2 C2          1.7320    3.6480    3.1800 C.ar    1     ****   -0.2290 
      3 C3          2.0010    3.9990    4.4910 C.ar    1     ****    0.3940 
      4 N1          3.1410    3.6780    5.1410 N.ar    1     ****   -0.6270 
      5 C4          4.0620    2.9610    4.4490 C.ar    1     ****    0.3580 
      6 C5          3.8870    2.5710    3.1250 C.ar    1     ****   -0.2120 
      7 C6          5.2920    2.6510    5.2250 C.2     1     ****    0.5330 
      8 O1          5.5700    3.3390    6.2060 O.2     1     ****   -0.5610 
      9 N2          6.0410    1.5700    4.7860 N.am    1     ****   -0.4310 
     10 N3          7.2040    1.2280    5.4640 N.3     1     ****   -0.6350 
     11 H1          5.7670    0.9770    4.0100 H       1     ****    0.3250 
     12 H2          7.8070    2.0520    5.4680 H       1     ****    0.3580 
     13 H3          6.9500    1.0680    6.4400 H       1     ****    0.3450 
     14 H4          2.5280    2.6370    1.4570 H       1     ****    0.1450 
     15 H5          0.8010    3.9320    2.7040 H       1     ****    0.1490 
     16 H6          1.2830    4.5690    5.0730 H       1     ****    0.0310 
     17 H7          4.6400    2.0270    2.5680 H       1     ****    0.1570 
@<TRIPOS>BOND
     1  2 1 ar
     2  3 2 ar
     3  4 3 ar
     4  5 4 ar
     5  6 1 ar
     6  6 5 ar
     7  7 5 1
     8  8 7 2
     9  9 7 1
    10 10 9 1
    11 11 9 1
    12 12 10 1
    13 13 10 1
    14 14 1 1
    15 15 2 1
    16 16 3 1
    17 17 6 1
@<TRIPOS>SUBSTRUCTURE
1     ****    1
@<TRIPOS>MOLECULE
ZINC00011544
34 37 1 0 0 
SMALL
USER_CHARGES


@<TRIPOS>ATOM
      1 C1          0.1320  -10.7930    0.0750 C.3     1     ****    0.1130 
      2 O1         -0.3020   -9.4430    0.1960 O.3     1     ****   -0.3240 
      3 C2         -0.1080   -8.6310   -0.8920 C.ar    1     ****    0.1610 
      4 C3          0.4870   -9.0210   -2.1080 C.ar    1     ****   -0.2450 
      5 C4          0.6440   -8.1070   -3.1570 C.ar    1     ****   -0.0410 
      6 C5          0.1920   -6.8170   -2.9690 C.ar    1     ****   -0.1990 
      7 C6         -0.4010   -6.4320   -1.7730 C.ar    1     ****    0.1520 
      8 C7         -0.5530   -7.3130   -0.7220 C.ar    1     ****   -0.1790 
      9 O2         -0.7750   -5.1070   -1.7400 O.3     1     ****   -0.3160 
     10 C8         -0.6950   -4.6710   -3.1180 C.3     1     ****    0.1970 
     11 C9          0.2470   -5.6200   -3.8440 C.3     1     ****   -0.0540 
     12 C10         1.6630   -5.0520   -3.9330 C.3     1     ****    0.1350 
     13 O3          1.6740   -3.7690   -4.5640 O.3     1     ****   -0.3230 
     14 C11         0.8820   -2.8590   -3.9100 C.ar    1     ****    0.1620 
     15 C12        -0.2530   -3.2340   -3.1790 C.ar    1     ****   -0.1920 
     16 C13        -1.0120   -2.2360   -2.5480 C.ar    1     ****   -0.0350 
     17 C14        -0.6490   -0.8930   -2.6530 C.ar    1     ****   -0.2440 
     18 C15         0.4720   -0.5420   -3.4020 C.ar    1     ****    0.1570 
     19 C16         1.2370   -1.5160   -4.0370 C.ar    1     ****   -0.1830 
     20 O4          0.8500    0.7640   -3.5340 O.3     1     ****   -0.4940 
     21 H1          0.2250    1.3200   -3.0380 H       1     ****    0.4220 
     22 H2         -0.0950  -11.3020    1.0170 H       1     ****    0.0680 
     23 H3         -0.4110  -11.3120   -0.7220 H       1     ****    0.0350 
     24 H4          1.2140  -10.8470   -0.0800 H       1     ****    0.0350 
     25 H5          0.8440  -10.0350   -2.2660 H       1     ****    0.1400 
     26 H6          1.1140   -8.4090   -4.0870 H       1     ****    0.1370 
     27 H7         -1.0090   -6.9920    0.2090 H       1     ****    0.1680 
     28 H8         -1.6860   -4.7430   -3.6030 H       1     ****    0.0750 
     29 H9         -0.0880   -5.8620   -4.8650 H       1     ****    0.0810 
     30 H10         2.1470   -4.9710   -2.9490 H       1     ****    0.0590 
     31 H11         2.2960   -5.7170   -4.5320 H       1     ****    0.0770 
     32 H12        -1.9000   -2.5030   -1.9790 H       1     ****    0.1480 
     33 H13        -1.2500   -0.1360   -2.1580 H       1     ****    0.1380 
     34 H14         2.1090   -1.2320   -4.6200 H       1     ****    0.1680 
@<TRIPOS>BOND
     1  2 1 1
     2  3 2 1
     3  4 3 ar
     4  5 4 ar
     5  6 5 ar
     6  7 6 ar
     7  8 3 ar
     8  8 7 ar
     9  9 7 1
    10 10 9 1
    11 11 6 1
    12 11 10 1
    13 12 11 1
    14 13 12 1
    15 14 13 1
    16 15 10 1
    17 15 14 ar
    18 16 15 ar
    19 17 16 ar
    20 18 17 ar
    21 19 14 ar
    22 19 18 ar
    23 20 18 1
    24 21 20 1
    25 22 1 1
    26 23 1 1
    27 24 1 1
    28 25 4 1
    29 26 5 1
    30 27 8 1
    31 28 10 1
    32 29 11 1
    33 30 12 1
    34 31 12 1
    35 32 16 1
    36 33 17 1
    37 34 19 1
@<TRIPOS>SUBSTRUCTURE
1     ****    1
@<TRIPOS>MOLECULE
ZINC00011937
26 28 1 0 0 
SMALL
USER_CHARGES


@<TRIPOS>ATOM
      1 C1          4.9540   -8.2830    1.4450 C.ar    1     ****   -0.2310 
      2 C2          4.9410   -9.6670    1.3510 C.ar    1     ****    0.3940 
      3 N1          4.9530  -10.3470    0.1850 N.ar    1     ****   -0.6580 
      4 C3          4.9760   -9.6020   -0.9420 C.ar    1     ****    0.3940 
      5 C4          4.9900   -8.2160   -0.9580 C.ar    1     ****   -0.2310 
      6 C5          4.9840   -7.5370    0.2640 C.ar    1     ****   -0.0450 
      7 C6          4.9820   -6.0320    0.3060 C.3     1     ****   -0.0070 
      8 S1          3.2820   -5.3720    0.2980 S.3     1     ****   -0.1580 
      9 C7          3.5960   -3.6330    0.3520 C.ar    1     ****    0.5640 
     10 C8          2.5170   -2.7450    0.3600 C.ar    1     ****   -0.1610 
     11 C9          2.8270   -1.3940    0.4030 C.ar    1     ****    0.4320 
     12 N2          1.6240   -0.7470    0.4020 N.pl3   1     ****   -0.3780 
     13 C10         0.6490   -1.7060    0.3610 C.2     1     ****    0.4140 
     14 N3          1.1520   -2.9210    0.3340 N.2     1     ****   -0.5270 
     15 N4          4.0450   -0.8360    0.4370 N.ar    1     ****   -0.6990 
     16 C11         5.0030   -1.7860    0.4250 C.ar    1     ****    0.6630 
     17 N5          4.8570   -3.1310    0.3850 N.ar    1     ****   -0.7500 
     18 H1          1.4840    0.2540    0.4280 H       1     ****    0.3210 
     19 H2          4.9380   -7.8010    2.4170 H       1     ****    0.1480 
     20 H3          4.9190  -10.2830    2.2440 H       1     ****    0.0250 
     21 H4          4.9820  -10.1680   -1.8690 H       1     ****    0.0250 
     22 H5          5.0040   -7.6800   -1.9010 H       1     ****    0.1490 
     23 H6          5.5050   -5.6890    1.2060 H       1     ****    0.0920 
     24 H7          5.5320   -5.6400   -0.5570 H       1     ****    0.0920 
     25 H8         -0.4030   -1.4540    0.3520 H       1     ****    0.0770 
     26 H9          6.0260   -1.4260    0.4510 H       1     ****    0.0560 
@<TRIPOS>BOND
     1  2 1 ar
     2  3 2 ar
     3  4 3 ar
     4  5 4 ar
     5  6 1 ar
     6  6 5 ar
     7  7 6 1
     8  8 7 1
     9  9 8 1
    10 10 9 ar
    11 11 10 ar
    12 12 11 1
    13 13 12 1
    14 14 10 1
    15 14 13 2
    16 15 11 ar
    17 16 15 ar
    18 17 9 ar
    19 17 16 ar
    20 18 12 1
    21 19 1 1
    22 20 2 1
    23 21 4 1
    24 22 5 1
    25 23 7 1
    26 24 7 1
    27 25 13 1
    28 26 16 1
@<TRIPOS>SUBSTRUCTURE
1     ****    1
@<TRIPOS>MOLECULE
ZINC00011938
26 28 1 0 0 
SMALL
USER_CHARGES


@<TRIPOS>ATOM
      1 C1          2.1030   -8.4180    2.8520 C.ar    1     ****   -0.2470 
      2 C2          2.4550   -7.6020    1.7820 C.ar    1     ****   -0.0750 
      3 C3          3.4380   -6.6220    1.9430 C.ar    1     ****   -0.2030 
      4 C4          4.0190   -6.5080    3.2040 C.ar    1     ****    0.4130 
      5 N1          3.7010   -7.2850    4.2640 N.ar    1     ****   -0.6630 
      6 C5          2.7500   -8.2220    4.0600 C.ar    1     ****    0.4010 
      7 C6          3.8310   -5.7120    0.8160 C.3     1     ****    0.0070 
      8 S1          2.8000   -4.2080    0.7880 S.3     1     ****   -0.1650 
      9 C7          3.4780   -3.3620   -0.6080 C.ar    1     ****    0.5650 
     10 C8          2.9400   -2.1280   -0.9860 C.ar    1     ****   -0.1620 
     11 C9          3.5140   -1.5130   -2.0880 C.ar    1     ****    0.4320 
     12 N2          2.8250   -0.3450   -2.2500 N.pl3   1     ****   -0.3780 
     13 C10         1.8780   -0.2930   -1.2630 C.2     1     ****    0.4130 
     14 N3          1.9200   -1.3530   -0.4830 N.2     1     ****   -0.5270 
     15 N4          4.5290   -1.9640   -2.8380 N.ar    1     ****   -0.7000 
     16 C11         4.9640   -3.1560   -2.3810 C.ar    1     ****    0.6630 
     17 N5          4.5090   -3.8740   -1.3280 N.ar    1     ****   -0.7490 
     18 H1          2.9860    0.3500   -2.9660 H       1     ****    0.3210 
     19 H2          1.3440   -9.1840    2.7430 H       1     ****    0.1460 
     20 H3          1.9580   -7.7330    0.8240 H       1     ****    0.1440 
     21 H4          4.7820   -5.7620    3.4050 H       1     ****    0.0280 
     22 H5          2.5110   -8.8340    4.9250 H       1     ****    0.0240 
     23 H6          4.8860   -5.4330    0.9200 H       1     ****    0.0900 
     24 H7          3.7300   -6.2440   -0.1370 H       1     ****    0.0890 
     25 H8          1.1930    0.5380   -1.1670 H       1     ****    0.0770 
     26 H9          5.7890   -3.5990   -2.9300 H       1     ****    0.0550 
@<TRIPOS>BOND
     1  2 1 ar
     2  3 2 ar
     3  4 3 ar
     4  5 4 ar
     5  6 1 ar
     6  6 5 ar
     7  7 3 1
     8  8 7 1
     9  9 8 1
    10 10 9 ar
    11 11 10 ar
    12 12 11 1
    13 13 12 1
    14 14 10 1
    15 14 13 2
    16 15 11 ar
    17 16 15 ar
    18 17 9 ar
    19 17 16 ar
    20 18 12 1
    21 19 1 1
    22 20 2 1
    23 21 4 1
    24 22 6 1
    25 23 7 1
    26 24 7 1
    27 25 13 1
    28 26 16 1
@<TRIPOS>SUBSTRUCTURE
1     ****    1
@<TRIPOS>MOLECULE
ZINC00012187
31 33 1 0 0 
SMALL
USER_CHARGES


@<TRIPOS>ATOM
      1 C1          7.2820   -7.5680   -0.4380 C.3     1     ****    0.1120 
      2 O1          6.2650   -6.9360    0.3290 O.3     1     ****   -0.3060 
      3 C2          5.5070   -7.7280    1.1520 C.ar    1     ****    0.1770 
      4 C3          5.6130   -9.1220    1.2250 C.ar    1     ****   -0.2130 
      5 C4          4.7770   -9.8550    2.0720 C.ar    1     ****   -0.0730 
      6 C5          3.8260   -9.2070    2.8560 C.ar    1     ****   -0.1700 
      7 C6          3.7070   -7.8200    2.7970 C.ar    1     ****   -0.0780 
      8 C7          4.5430   -7.0820    1.9470 C.ar    1     ****   -0.1830 
      9 C8          4.4030   -5.6070    1.9300 C.2     1     ****    0.5580 
     10 N1          3.1110   -5.1270    1.7780 N.am    1     ****   -0.4940 
     11 C9          2.7980   -3.7810    1.7430 C.2     1     ****    0.7080 
     12 O2          1.6600   -3.3490    1.6070 O.2     1     ****   -0.6300 
     13 C10         3.9580   -2.8770    1.8820 C.ar    1     ****   -0.1900 
     14 C11         3.7840   -1.4900    1.8640 C.ar    1     ****   -0.0600 
     15 C12         4.8940   -0.6570    1.9940 C.ar    1     ****   -0.1550 
     16 C13         6.1670   -1.2090    2.1410 C.ar    1     ****   -0.0970 
     17 C14         6.3330   -2.5950    2.1590 C.ar    1     ****   -0.1230 
     18 C15         5.2300   -3.4450    2.0290 C.ar    1     ****    0.1840 
     19 N2          5.4380   -4.8360    2.0530 N.2     1     ****   -0.5980 
     20 H1          2.3400   -5.7790    1.6710 H       1     ****    0.3380 
     21 H2          7.8070   -6.7910   -1.0010 H       1     ****    0.0740 
     22 H3          8.0140   -8.0630    0.2080 H       1     ****    0.0390 
     23 H4          6.8510   -8.2690   -1.1610 H       1     ****    0.0320 
     24 H5          6.3340   -9.6740    0.6300 H       1     ****    0.1440 
     25 H6          4.8700  -10.9370    2.1190 H       1     ****    0.1380 
     26 H7          3.1830   -9.7810    3.5160 H       1     ****    0.1410 
     27 H8          2.9730   -7.3290    3.4300 H       1     ****    0.1430 
     28 H9          2.7980   -1.0480    1.7490 H       1     ****    0.1580 
     29 H10         4.7680    0.4220    1.9810 H       1     ****    0.1380 
     30 H11         7.0310   -0.5580    2.2430 H       1     ****    0.1350 
     31 H12         7.3310   -3.0120    2.2740 H       1     ****    0.1520 
@<TRIPOS>BOND
     1  2 1 1
     2  3 2 1
     3  4 3 ar
     4  5 4 ar
     5  6 5 ar
     6  7 6 ar
     7  8 3 ar
     8  8 7 ar
     9  9 8 1
    10 10 9 1
    11 11 10 1
    12 12 11 2
    13 13 11 1
    14 14 13 ar
    15 15 14 ar
    16 16 15 ar
    17 17 16 ar
    18 18 13 ar
    19 18 17 ar
    20 19 9 2
    21 19 18 1
    22 20 10 1
    23 21 1 1
    24 22 1 1
    25 23 1 1
    26 24 4 1
    27 25 5 1
    28 26 6 1
    29 27 7 1
    30 28 14 1
    31 29 15 1
    32 30 16 1
    33 31 17 1
@<TRIPOS>SUBSTRUCTURE
1     ****    1
@<TRIPOS>MOLECULE
ZINC00012530
19 19 1 0 0 
SMALL
USER_CHARGES


@<TRIPOS>ATOM
      1 C1          6.4890   -9.4210   -0.6730 C.3     1     ****    0.1730 
      2 N1          5.8090   -8.5100   -1.5630 N.pl3   1     ****   -0.7190 
      3 C2          4.6770   -7.7910   -1.2140 C.ar    1     ****    0.0810 
      4 C3          4.0700   -7.8730    0.0450 C.ar    1     ****   -0.2010 
      5 C4          2.9290   -7.1250    0.3430 C.ar    1     ****   -0.1430 
      6 C5          2.3720   -6.2790   -0.6140 C.ar    1     ****   -0.1310 
      7 C6          2.9470   -6.1670   -1.8850 C.ar    1     ****   -0.1030 
      8 C7          4.0970   -6.9300   -2.1650 C.ar    1     ****   -0.1450 
      9 C8          2.3500   -5.2540   -2.9280 C.2     1     ****    0.9070 
     10 O1          2.9270   -5.2040   -4.0590 O.co2   1     ****   -0.8330 
     11 H1          6.1820   -8.3890   -2.4980 H       1     ****    0.3760 
     12 H2          7.3500   -9.8590   -1.1870 H       1     ****    0.0220 
     13 H3          6.8610   -8.9010    0.2160 H       1     ****    0.0390 
     14 H4          5.8310  -10.2410   -0.3680 H       1     ****    0.0000 
     15 H5          4.4730   -8.5200    0.8190 H       1     ****    0.1030 
     16 H6          2.4740   -7.2040    1.3270 H       1     ****    0.1010 
     17 H7          1.4830   -5.7100   -0.3530 H       1     ****    0.1490 
     18 H8          4.5580   -6.8550   -3.1490 H       1     ****    0.1530 
     19 O2          1.3120   -4.5970   -2.6010 O.co2   1     ****   -0.8310 
@<TRIPOS>BOND
     1  2 1 1
     2  3 2 1
     3  4 3 ar
     4  5 4 ar
     5  6 5 ar
     6  7 6 ar
     7  8 3 ar
     8  8 7 ar
     9  9 7 1
    10 10 9 1
    11 11 2 1
    12 12 1 1
    13 13 1 1
    14 14 1 1
    15 15 4 1
    16 16 5 1
    17 17 6 1
    18 18 8 1
    19 19 9 2
@<TRIPOS>SUBSTRUCTURE
1     ****    1
@<TRIPOS>MOLECULE
ZINC00012687
31 32 1 0 0 
SMALL
USER_CHARGES


@<TRIPOS>ATOM
      1 C1          5.7270   -5.8600   -0.1960 C.3     1     ****    0.1120 
      2 O1          4.3820   -5.4280   -0.0300 O.3     1     ****   -0.3450 
      3 C2          3.4130   -6.3970    0.0980 C.ar    1     ****    0.1360 
      4 C3          3.6700   -7.7730    0.0150 C.ar    1     ****   -0.1820 
      5 C4          2.6280   -8.6940    0.1050 C.ar    1     ****   -0.0810 
      6 C5          1.3220   -8.2510    0.2740 C.ar    1     ****   -0.1370 
      7 C6          1.0570   -6.8840    0.3600 C.ar    1     ****   -0.1310 
      8 C7          2.0880   -5.9280    0.2840 C.ar    1     ****    0.0580 
      9 N1          1.8150   -4.5580    0.3900 N.pl3   1     ****   -0.6390 
     10 C8          2.3190   -3.8850    1.5940 C.3     1     ****    0.1680 
     11 C9          2.4620   -2.3900    1.3320 C.3     1     ****    0.1000 
     12 C10         0.7070   -2.5350   -0.4340 C.3     1     ****    0.1000 
     13 C11         0.5660   -4.0320   -0.1690 C.3     1     ****    0.1710 
     14 H1          6.3580   -4.9680   -0.2560 H       1     ****    0.0710 
     15 H2          6.0630   -6.4470    0.6650 H       1     ****    0.0440 
     16 H3          5.8500   -6.4170   -1.1310 H       1     ****    0.0490 
     17 H4          4.6730   -8.1630   -0.1290 H       1     ****    0.1550 
     18 H5          2.8360   -9.7580    0.0380 H       1     ****    0.1540 
     19 H6          0.5090   -8.9680    0.3430 H       1     ****    0.1520 
     20 H7          0.0250   -6.5760    0.5100 H       1     ****    0.1320 
     21 H8          1.6190   -4.0570    2.4220 H       1     ****    0.0430 
     22 H9          3.2920   -4.2730    1.9160 H       1     ****    0.1300 
     23 H10         2.6970   -1.8400    2.2480 H       1     ****    0.1040 
     24 H11         3.2220   -2.1770    0.5730 H       1     ****    0.1210 
     25 H12        -0.2480   -2.0840   -0.7180 H       1     ****    0.1040 
     26 H13         1.4550   -2.3240   -1.2050 H       1     ****    0.1210 
     27 H14         0.3240   -4.5250   -1.1180 H       1     ****    0.1150 
     28 H15        -0.2630   -4.2100    0.5280 H       1     ****    0.0410 
     29 N2          1.1630   -1.8500    0.8170 N.4     1     ****   -0.7610 
     30 H16         1.2620   -0.8410    0.6360 H       1     ****    0.4530 
     31 H17         0.4400   -1.9370    1.5440 H       1     ****    0.4460 
@<TRIPOS>BOND
     1  2 1 1
     2  3 2 1
     3  4 3 ar
     4  5 4 ar
     5  6 5 ar
     6  7 6 ar
     7  8 3 ar
     8  8 7 ar
     9  9 8 1
    10 10 9 1
    11 11 10 1
    12 13 9 1
    13 13 12 1
    14 14 1 1
    15 15 1 1
    16 16 1 1
    17 17 4 1
    18 18 5 1
    19 19 6 1
    20 20 7 1
    21 21 10 1
    22 22 10 1
    23 23 11 1
    24 24 11 1
    25 25 12 1
    26 26 12 1
    27 27 13 1
    28 28 13 1
    29 29 11 1
    30 29 12 1
    31 30 29 1
    32 31 29 1
@<TRIPOS>SUBSTRUCTURE
1     ****    1
@<TRIPOS>MOLECULE
ZINC00012806
29 31 1 0 0 
SMALL
USER_CHARGES


@<TRIPOS>ATOM
      1 C1          4.5770   -9.6050    0.2950 C.ar    1     ****   -0.1240 
      2 C2          4.1220   -8.7200   -0.6810 C.ar    1     ****   -0.1270 
      3 C3          3.7450   -7.4220   -0.3300 C.ar    1     ****   -0.1160 
      4 C4          3.8220   -6.9970    1.0040 C.ar    1     ****   -0.0080 
      5 C5          4.2780   -7.8960    1.9780 C.ar    1     ****   -0.1310 
      6 C6          4.6550   -9.1930    1.6240 C.ar    1     ****   -0.1270 
      7 C7          3.4220   -5.6430    1.3860 C.2     1     ****   -0.2560 
      8 C8          2.4520   -5.1930    2.2650 C.2     1     ****    0.5800 
      9 N1          2.3680   -3.8240    2.4090 N.2     1     ****   -0.6230 
     10 C9          3.2640   -3.2190    1.6550 C.2     1     ****    0.4660 
     11 S1          4.2420   -4.2880    0.7220 S.2     1     ****   -0.0550 
     12 C10         3.4150   -1.7540    1.5770 C.ar    1     ****   -0.1400 
     13 C11         2.3670   -0.9360    2.0340 C.ar    1     ****   -0.0800 
     14 C12         2.4630    0.4580    1.9850 C.ar    1     ****   -0.1360 
     15 C13         3.6130    1.0600    1.4830 C.ar    1     ****   -0.1150 
     16 C14         4.6650    0.2690    1.0320 C.ar    1     ****   -0.1310 
     17 C15         4.5690   -1.1260    1.0790 C.ar    1     ****   -0.1200 
     18 O1          1.6250   -6.0250    2.9350 O.3     1     ****   -0.5750 
     19 H1          1.7800   -6.9510    2.6810 H       1     ****    0.4340 
     20 H2          4.8700  -10.6140    0.0200 H       1     ****    0.1350 
     21 H3          4.0590   -9.0410   -1.7170 H       1     ****    0.1360 
     22 H4          3.3860   -6.7530   -1.1090 H       1     ****    0.1390 
     23 H5          4.3530   -7.5940    3.0210 H       1     ****    0.1400 
     24 H6          5.0100   -9.8820    2.3850 H       1     ****    0.1360 
     25 H7          1.4540   -1.3750    2.4310 H       1     ****    0.1580 
     26 H8          1.6400    1.0700    2.3410 H       1     ****    0.1370 
     27 H9          3.6890    2.1420    1.4450 H       1     ****    0.1350 
     28 H10         5.5660    0.7350    0.6430 H       1     ****    0.1360 
     29 H11         5.4220   -1.7010    0.7270 H       1     ****    0.1340 
@<TRIPOS>BOND
     1  2 1 ar
     2  3 2 ar
     3  4 3 ar
     4  5 4 ar
     5  6 1 ar
     6  6 5 ar
     7  7 4 1
     8  8 7 2
     9  9 8 1
    10 10 9 2
    11 11 7 1
    12 11 10 1
    13 12 10 1
    14 13 12 ar
    15 14 13 ar
    16 15 14 ar
    17 16 15 ar
    18 17 12 ar
    19 17 16 ar
    20 18 8 1
    21 19 18 1
    22 20 1 1
    23 21 2 1
    24 22 3 1
    25 23 5 1
    26 24 6 1
    27 25 13 1
    28 26 14 1
    29 27 15 1
    30 28 16 1
    31 29 17 1
@<TRIPOS>SUBSTRUCTURE
1     ****    1
@<TRIPOS>MOLECULE
ZINC00013245
16 16 1 0 0 
SMALL
USER_CHARGES


@<TRIPOS>ATOM
      1 C1          3.6770   -7.9090   -0.3200 C.ar    1     ****   -0.0870 
      2 C2          2.8890   -7.9700   -1.4710 C.ar    1     ****   -0.1870 
      3 C3          3.2080   -8.8810   -2.4760 C.ar    1     ****    0.0700 
      4 C4          4.3070   -9.7270   -2.3360 C.ar    1     ****    0.0960 
      5 C5          5.1000   -9.6750   -1.1940 C.ar    1     ****   -0.0730 
      6 C6          4.7790   -8.7610   -0.1870 C.ar    1     ****   -0.1950 
      7 C7          5.5950   -8.6780    1.0370 C.2     1     ****    0.5780 
      8 O1          6.5720   -9.3910    1.2230 O.2     1     ****   -0.5240 
      9 O2          4.6320  -10.6260   -3.3130 O.3     1     ****   -0.4890 
     10 O3          2.4560   -8.9660   -3.6150 O.3     1     ****   -0.5110 
     11 H1          3.9780  -10.5240   -4.0280 H       1     ****    0.4380 
     12 H2          1.7340   -8.3160   -3.5580 H       1     ****    0.4330 
     13 H3          3.4230   -7.1960    0.4600 H       1     ****    0.1380 
     14 H4          2.0350   -7.3060   -1.5700 H       1     ****    0.1400 
     15 H5          5.9540  -10.3400   -1.0970 H       1     ****    0.1760 
     16 H6          5.2820   -7.9330    1.7890 H       1     ****   -0.0020 
@<TRIPOS>BOND
     1  2 1 ar
     2  3 2 ar
     3  4 3 ar
     4  5 4 ar
     5  6 1 ar
     6  6 5 ar
     7  7 6 1
     8  8 7 2
     9  9 4 1
    10 10 3 1
    11 11 9 1
    12 12 10 1
    13 13 1 1
    14 14 2 1
    15 15 5 1
    16 16 7 1
@<TRIPOS>SUBSTRUCTURE
1     ****    1
@<TRIPOS>MOLECULE
ZINC00013246
16 16 1 0 0 
SMALL
USER_CHARGES


@<TRIPOS>ATOM
      1 C1          4.9130   -6.7570   -2.1420 C.ar    1     ****   -0.1060 
      2 C2          4.4010   -5.5440   -2.6110 C.ar    1     ****   -0.1620 
      3 C3          3.1410   -5.1270   -2.1990 C.ar    1     ****    0.0730 
      4 C4          2.3940   -5.9110   -1.3270 C.ar    1     ****    0.0050 
      5 C5          2.9010   -7.1230   -0.8570 C.ar    1     ****   -0.1440 
      6 C6          4.1730   -7.5640   -1.2600 C.ar    1     ****   -0.1230 
      7 C7          4.7310   -8.8740   -0.7570 C.2     1     ****    0.9100 
      8 O1          5.8880   -9.2080   -1.1640 O.co2   1     ****   -0.8270 
      9 O2          1.1580   -5.4700   -0.9430 O.3     1     ****   -0.5440 
     10 O3          2.6600   -3.9380   -2.6700 O.3     1     ****   -0.5210 
     11 H1          0.7710   -6.1270   -0.3390 H       1     ****    0.4190 
     12 H2          1.7770   -3.8130   -2.2790 H       1     ****    0.4180 
     13 H3          5.9010   -7.0660   -2.4760 H       1     ****    0.1550 
     14 H4          4.9890   -4.9360   -3.2920 H       1     ****    0.1260 
     15 H5          2.3050   -7.7260   -0.1750 H       1     ****    0.1560 
     16 O4          4.0050   -9.5490    0.0380 O.co2   1     ****   -0.8350 
@<TRIPOS>BOND
     1  2 1 ar
     2  3 2 ar
     3  4 3 ar
     4  5 4 ar
     5  6 1 ar
     6  6 5 ar
     7  7 6 1
     8  8 7 1
     9  9 4 1
    10 10 3 1
    11 11 9 1
    12 12 10 1
    13 13 1 1
    14 14 2 1
    15 15 5 1
    16 16 7 2
@<TRIPOS>SUBSTRUCTURE
1     ****    1
@<TRIPOS>MOLECULE
ZINC00014479
25 26 1 0 0 
SMALL
USER_CHARGES


@<TRIPOS>ATOM
      1 C1          3.9170   -7.5760   -1.7940 C.ar    1     ****   -0.1770 
      2 C2          2.6290   -7.1500   -1.4610 C.ar    1     ****   -0.0960 
      3 C3          2.4220   -6.4120   -0.2960 C.ar    1     ****    0.0460 
      4 C4          3.4910   -6.1360    0.5570 C.ar    1     ****   -0.1170 
      5 C5          4.7770   -6.5650    0.2180 C.ar    1     ****   -0.1770 
      6 C6          5.0070   -7.2750   -0.9680 C.ar    1     ****    0.1320 
      7 N1          6.2790   -7.7280   -1.2840 N.pl3   1     ****   -0.8180 
      8 O1          1.1260   -6.0510   -0.0040 O.3     1     ****   -0.2500 
      9 C7          0.9100   -4.7490    0.3910 C.ar    1     ****    0.1060 
     10 C8          1.4130   -3.6550   -0.3200 C.ar    1     ****   -0.1590 
     11 C9          1.1260   -2.3580    0.1100 C.ar    1     ****   -0.1040 
     12 C10         0.3270   -2.1640    1.2370 C.ar    1     ****   -0.0040 
     13 C11        -0.1950   -3.2540    1.9340 C.ar    1     ****   -0.1060 
     14 C12         0.0910   -4.5500    1.5050 C.ar    1     ****   -0.1360 
     15 CL1        -0.0270   -0.5640    1.7660 Cl      1     ****   -0.0950 
     16 H1          7.0710   -7.4540   -0.7190 H       1     ****    0.3900 
     17 H2          6.4500   -8.1830   -2.1710 H       1     ****    0.3910 
     18 H3          4.0630   -8.1480   -2.7070 H       1     ****    0.1370 
     19 H4          1.7950   -7.3940   -2.1140 H       1     ****    0.1490 
     20 H5          3.3410   -5.6000    1.4900 H       1     ****    0.1460 
     21 H6          5.6010   -6.3440    0.8910 H       1     ****    0.1360 
     22 H7          2.0210   -3.7970   -1.2100 H       1     ****    0.1510 
     23 H8          1.5260   -1.5120   -0.4430 H       1     ****    0.1490 
     24 H9         -0.8250   -3.1080    2.8070 H       1     ****    0.1500 
     25 H10        -0.3200   -5.3990    2.0430 H       1     ****    0.1550 
@<TRIPOS>BOND
     1  2 1 ar
     2  3 2 ar
     3  4 3 ar
     4  5 4 ar
     5  6 1 ar
     6  6 5 ar
     7  7 6 1
     8  8 3 1
     9  9 8 1
    10 10 9 ar
    11 11 10 ar
    12 12 11 ar
    13 13 12 ar
    14 14 9 ar
    15 14 13 ar
    16 15 12 1
    17 16 7 1
    18 17 7 1
    19 18 1 1
    20 19 2 1
    21 20 4 1
    22 21 5 1
    23 22 10 1
    24 23 11 1
    25 24 13 1
    26 25 14 1
@<TRIPOS>SUBSTRUCTURE
1     ****    1
@<TRIPOS>MOLECULE
ZINC00015630
36 39 1 0 0 
SMALL
USER_CHARGES


@<TRIPOS>ATOM
      1 C1          5.7000  -12.1050   -0.3320 C.3     1     ****    0.0780 
      2 N1          5.1790  -10.9340    0.3330 N.am    1     ****   -0.5710 
      3 C2          5.9740  -10.1040    1.1020 C.2     1     ****    0.6640 
      4 O1          7.1720  -10.2570    1.3180 O.2     1     ****   -0.5860 
      5 C3          5.2240   -8.9680    1.7120 C.2     1     ****   -0.0500 
      6 C4          4.6750   -8.1010    0.8580 C.2     1     ****   -0.2060 
      7 C5          3.9640   -6.8900    1.3260 C.2     1     ****    0.5370 
      8 N2          3.4250   -6.1440    0.4080 N.2     1     ****   -0.6230 
      9 C6          2.7410   -4.9910    0.7950 C.ar    1     ****    0.1910 
     10 C7          2.0740   -4.2360   -0.1760 C.ar    1     ****   -0.1240 
     11 C8          1.3900   -3.0720    0.1770 C.ar    1     ****   -0.0910 
     12 C9          1.3700   -2.6530    1.5050 C.ar    1     ****   -0.1550 
     13 C10         2.0340   -3.3970    2.4790 C.ar    1     ****   -0.0560 
     14 C11         2.7160   -4.5660    2.1190 C.ar    1     ****   -0.1980 
     15 C12         3.4310   -5.3710    3.1330 C.2     1     ****    0.7180 
     16 O2          3.5740   -4.8540    4.2380 O.2     1     ****   -0.6070 
     17 N3          3.9320   -6.6140    2.6960 N.am    1     ****   -0.2850 
     18 C13         4.4740   -7.5800    3.6370 C.ar    1     ****    0.0810 
     19 C14         5.1230   -8.7380    3.1560 C.ar    1     ****   -0.0930 
     20 C15         5.6420   -9.6850    4.0600 C.ar    1     ****   -0.0830 
     21 C16         5.5230   -9.5060    5.4340 C.ar    1     ****   -0.1450 
     22 C17         4.8670   -8.3870    5.9190 C.ar    1     ****   -0.0950 
     23 C18         4.3420   -7.4420    5.0320 C.ar    1     ****   -0.1470 
     24 H1          4.1830  -10.7530    0.2590 H       1     ****    0.3170 
     25 H2          5.1340  -12.2600   -1.2530 H       1     ****    0.0380 
     26 H3          6.7610  -11.9800   -0.5620 H       1     ****    0.0760 
     27 H4          5.5670  -12.9630    0.3310 H       1     ****    0.0280 
     28 H5          4.7470   -8.2300   -0.2180 H       1     ****    0.1750 
     29 H6          2.0860   -4.5540   -1.2160 H       1     ****    0.1540 
     30 H7          0.8750   -2.4930   -0.5850 H       1     ****    0.1380 
     31 H8          0.8390   -1.7460    1.7810 H       1     ****    0.1410 
     32 H9          2.0070   -3.0560    3.5110 H       1     ****    0.1590 
     33 H10         6.1400  -10.5860    3.7100 H       1     ****    0.1590 
     34 H11         5.9270  -10.2450    6.1190 H       1     ****    0.1430 
     35 H12         4.7490   -8.2470    6.9900 H       1     ****    0.1410 
     36 H13         3.8050   -6.6210    5.4920 H       1     ****    0.1770 
@<TRIPOS>BOND
     1  2 1 1
     2  3 2 1
     3  4 3 2
     4  5 3 1
     5  6 5 2
     6  7 6 1
     7  8 7 2
     8  9 8 1
     9 10 9 ar
    10 11 10 ar
    11 12 11 ar
    12 13 12 ar
    13 14 9 ar
    14 14 13 ar
    15 15 14 1
    16 16 15 2
    17 17 7 1
    18 17 15 1
    19 18 17 1
    20 19 5 1
    21 19 18 ar
    22 20 19 ar
    23 21 20 ar
    24 22 21 ar
    25 23 18 ar
    26 23 22 ar
    27 24 2 1
    28 25 1 1
    29 26 1 1
    30 27 1 1
    31 28 6 1
    32 29 10 1
    33 30 11 1
    34 31 12 1
    35 32 13 1
    36 33 20 1
    37 34 21 1
    38 35 22 1
    39 36 23 1
@<TRIPOS>SUBSTRUCTURE
1     ****    1
@<TRIPOS>MOLECULE
ZINC00017343
30 32 1 0 0 
SMALL
USER_CHARGES


@<TRIPOS>ATOM
      1 C1         -1.5180    8.9950    4.5110 C.ar    1     ****   -0.1160 
      2 C2         -0.2500    8.4240    4.4230 C.ar    1     ****   -0.1300 
      3 C3          0.0640    7.5770    3.3580 C.ar    1     ****   -0.0990 
      4 C4         -0.8910    7.3000    2.3700 C.ar    1     ****   -0.0820 
      5 C5         -2.1660    7.8740    2.4700 C.ar    1     ****   -0.1140 
      6 C6         -2.4750    8.7200    3.5360 C.ar    1     ****   -0.1340 
      7 C7         -0.5710    6.4070    1.2470 C.2     1     ****    0.0890 
      8 C8          0.3640    6.6540    0.3000 C.2     1     ****   -0.2460 
      9 C9          0.4310    5.4770   -0.6090 C.2     1     ****    0.5960 
     10 O1          1.1630    5.3260   -1.5660 O.2     1     ****   -0.4650 
     11 C10        -0.5680    4.5310   -0.1440 C.ar    1     ****   -0.1730 
     12 C11        -1.1700    5.0950    0.9690 C.ar    1     ****   -0.0670 
     13 C12        -2.1650    4.3960    1.6350 C.ar    1     ****   -0.0960 
     14 C13        -2.5370    3.1370    1.1480 C.ar    1     ****   -0.1130 
     15 C14        -1.9140    2.5890    0.0130 C.ar    1     ****   -0.1300 
     16 C15        -0.9080    3.2910   -0.6510 C.ar    1     ****   -0.0590 
     17 C16         1.2570    7.8270    0.1600 C.2     1     ****    0.6890 
     18 O2          2.4470    7.6930   -0.1080 O.2     1     ****   -0.5880 
     19 N1          0.6420    9.0450    0.2960 N.am    1     ****   -0.6720 
     20 H1          1.1800    9.8990    0.2020 H       1     ****    0.3180 
     21 H2         -0.3520    9.1510    0.4690 H       1     ****    0.3100 
     22 H3         -1.7610    9.6530    5.3410 H       1     ****    0.1370 
     23 H4          0.4950    8.6360    5.1840 H       1     ****    0.1410 
     24 H5          1.0570    7.1370    3.3100 H       1     ****    0.1500 
     25 H6         -2.9260    7.6740    1.7180 H       1     ****    0.1390 
     26 H7         -3.4640    9.1650    3.6070 H       1     ****    0.1370 
     27 H8         -2.6520    4.8010    2.5160 H       1     ****    0.1470 
     28 H9         -3.3160    2.5730    1.6550 H       1     ****    0.1380 
     29 H10        -2.2170    1.6100   -0.3460 H       1     ****    0.1400 
     30 H11        -0.4180    2.8770   -1.5240 H       1     ****    0.1550 
@<TRIPOS>BOND
     1  2 1 ar
     2  3 2 ar
     3  4 3 ar
     4  5 4 ar
     5  6 1 ar
     6  6 5 ar
     7  7 4 1
     8  8 7 2
     9  9 8 1
    10 10 9 2
    11 11 9 1
    12 12 7 1
    13 12 11 ar
    14 13 12 ar
    15 14 13 ar
    16 15 14 ar
    17 16 11 ar
    18 16 15 ar
    19 17 8 1
    20 18 17 2
    21 19 17 1
    22 20 19 1
    23 21 19 1
    24 22 1 1
    25 23 2 1
    26 24 3 1
    27 25 5 1
    28 26 6 1
    29 27 13 1
    30 28 14 1
    31 29 15 1
    32 30 16 1
@<TRIPOS>SUBSTRUCTURE
1     ****    1
@<TRIPOS>MOLECULE
ZINC00018550
31 33 1 0 0 
SMALL
USER_CHARGES


@<TRIPOS>ATOM
      1 C1          5.5540   -6.4330    3.6510 C.ar    1     ****   -0.1410 
      2 C2          4.8000   -5.4140    3.0770 C.ar    1     ****   -0.1180 
      3 C3          4.1000   -5.6460    1.8920 C.ar    1     ****   -0.1290 
      4 C4          4.1460   -6.9030    1.2650 C.ar    1     ****    0.0010 
      5 C5          3.4460   -7.1530    0.0690 C.ar    1     ****   -0.1940 
      6 C6          3.4840   -8.4070   -0.5580 C.ar    1     ****    0.1820 
      7 C7          4.2490   -9.4180    0.0400 C.ar    1     ****   -0.1710 
      8 C8          4.9520   -9.1900    1.2260 C.ar    1     ****   -0.0860 
      9 C9          4.9110   -7.9360    1.8500 C.ar    1     ****   -0.0690 
     10 C10         5.6100   -7.6870    3.0430 C.ar    1     ****   -0.1050 
     11 N1          2.8270   -8.6860   -1.7720 N.pl3   1     ****   -0.6650 
     12 C11         2.3960   -7.8640   -2.8320 C.ar    1     ****    0.1440 
     13 C12         2.9390   -6.5980   -3.0970 C.ar    1     ****   -0.1420 
     14 C13         2.4510   -5.8070   -4.1420 C.ar    1     ****   -0.1790 
     15 C14         1.4070   -6.2780   -4.9300 C.ar    1     ****    0.0890 
     16 C15         0.8480   -7.5270   -4.6900 C.ar    1     ****   -0.1230 
     17 C16         1.3400   -8.3120   -3.6450 C.ar    1     ****   -0.1550 
     18 O1          0.9060   -5.5320   -5.9590 O.3     1     ****   -0.4990 
     19 H1          2.6280   -9.6720   -1.9130 H       1     ****    0.4390 
     20 H2          1.3960   -4.6930   -6.0000 H       1     ****    0.4170 
     21 H3          6.0990   -6.2520    4.5730 H       1     ****    0.1310 
     22 H4          4.7560   -4.4370    3.5500 H       1     ****    0.1310 
     23 H5          3.5170   -4.8350    1.4610 H       1     ****    0.1330 
     24 H6          2.8380   -6.3560   -0.3540 H       1     ****    0.1440 
     25 H7          4.3120  -10.4020   -0.4210 H       1     ****    0.1330 
     26 H8          5.5340  -10.0030    1.6550 H       1     ****    0.1330 
     27 H9          6.2050   -8.4700    3.5080 H       1     ****    0.1300 
     28 H10         3.7740   -6.2170   -2.5150 H       1     ****    0.1480 
     29 H11         2.8990   -4.8350   -4.3280 H       1     ****    0.1350 
     30 H12         0.0310   -7.8940   -5.3040 H       1     ****    0.1510 
     31 H13         0.8860   -9.2840   -3.4640 H       1     ****    0.1350 
@<TRIPOS>BOND
     1  2 1 ar
     2  3 2 ar
     3  4 3 ar
     4  5 4 ar
     5  6 5 ar
     6  7 6 ar
     7  8 7 ar
     8  9 4 ar
     9  9 8 ar
    10 10 1 ar
    11 10 9 ar
    12 11 6 1
    13 12 11 1
    14 13 12 ar
    15 14 13 ar
    16 15 14 ar
    17 16 15 ar
    18 17 12 ar
    19 17 16 ar
    20 18 15 1
    21 19 11 1
    22 20 18 1
    23 21 1 1
    24 22 2 1
    25 23 3 1
    26 24 5 1
    27 25 7 1
    28 26 8 1
    29 27 10 1
    30 28 13 1
    31 29 14 1
    32 30 16 1
    33 31 17 1
@<TRIPOS>SUBSTRUCTURE
1     ****    1
@<TRIPOS>MOLECULE
ZINC00018718
49 52 1 0 0 
SMALL
USER_CHARGES


@<TRIPOS>ATOM
      1 C1          5.1590   -5.0070   -0.0640 C.3     1     ****   -0.0840 
      2 C2          4.2840   -6.2340    0.2650 C.3     1     ****   -0.1460 
      3 C3          5.1400   -7.4020    0.8100 C.3     1     ****   -0.0600 
      4 C4          5.1920   -7.4790    2.3600 C.3     1     ****   -0.0710 
      5 C5          5.0420   -6.0710    2.9840 C.3     1     ****   -0.0560 
      6 C6          3.6200   -5.5420    2.6770 C.3     1     ****   -0.0460 
      7 C7          3.1540   -5.9920    1.2800 C.3     1     ****   -0.0580 
      8 C8          2.1290   -5.1880    0.4810 C.3     1     ****   -0.0730 
      9 C9          2.0970   -5.9410   -0.8710 C.3     1     ****   -0.1890 
     10 C10         3.4870   -6.5670   -0.9660 C.2     1     ****    0.5740 
     11 O1          3.8880   -7.2140   -1.9220 O.2     1     ****   -0.5210 
     12 C11         3.5930   -4.0280    2.9080 C.3     1     ****   -0.0400 
     13 C12         4.2010   -3.6980    4.2490 C.2     1     ****   -0.1630 
     14 C13         4.9330   -4.5570    4.9900 C.2     1     ****   -0.1060 
     15 C14         5.2880   -5.9860    4.5330 C.3     1     ****   -0.0010 
     16 C15         6.7930   -6.2710    4.8560 C.3     1     ****   -0.0730 
     17 C16         7.6290   -4.9940    4.9390 C.3     1     ****   -0.0740 
     18 C17         7.1400   -4.0640    6.0640 C.3     1     ****    0.1480 
     19 C18         5.6140   -4.1020    6.2570 C.3     1     ****   -0.0720 
     20 O2          7.5410   -2.7410    5.7420 O.3     1     ****   -0.5990 
     21 C19         4.4450   -7.0240    5.3090 C.3     1     ****   -0.0820 
     22 H1          7.3010   -2.1690    6.4910 H       1     ****    0.3970 
     23 H2          4.5670   -4.1930   -0.4990 H       1     ****    0.0360 
     24 H3          5.7070   -4.5860    0.7750 H       1     ****    0.0500 
     25 H4          5.9030   -5.2740   -0.8250 H       1     ****    0.0460 
     26 H5          4.7690   -8.3640    0.4340 H       1     ****    0.0540 
     27 H6          6.1660   -7.3160    0.4280 H       1     ****    0.0490 
     28 H7          4.3820   -8.1330    2.7060 H       1     ****    0.0410 
     29 H8          6.1280   -7.9650    2.6500 H       1     ****    0.0450 
     30 H9          5.8210   -5.4800    2.4800 H       1     ****    0.0580 
     31 H10         2.8830   -5.9230    3.4060 H       1     ****    0.0520 
     32 H11         2.6080   -6.9330    1.5080 H       1     ****    0.0480 
     33 H12         1.1420   -5.1780    0.9550 H       1     ****    0.0500 
     34 H13         2.4410   -4.1490    0.3320 H       1     ****    0.0500 
     35 H14         1.3510   -6.7410   -0.8540 H       1     ****    0.0740 
     36 H15         1.9180   -5.2580   -1.7040 H       1     ****    0.0750 
     37 H16         4.1390   -3.4840    2.1310 H       1     ****    0.0550 
     38 H17         2.5570   -3.6690    2.8930 H       1     ****    0.0470 
     39 H18         4.0540   -2.6780    4.5980 H       1     ****    0.1220 
     40 H19         6.8840   -6.7910    5.8200 H       1     ****    0.0410 
     41 H20         7.2450   -6.9410    4.1190 H       1     ****    0.0490 
     42 H21         8.6820   -5.2460    5.1180 H       1     ****    0.0490 
     43 H22         7.6140   -4.4720    3.9730 H       1     ****    0.0660 
     44 H23         7.6190   -4.3890    7.0010 H       1     ****    0.0290 
     45 H24         5.2390   -3.1250    6.5840 H       1     ****    0.0470 
     46 H25         5.3630   -4.8100    7.0560 H       1     ****    0.0520 
     47 H26         4.6280   -6.9560    6.3880 H       1     ****    0.0340 
     48 H27         3.3690   -6.8880    5.1730 H       1     ****    0.0390 
     49 H28         4.6980   -8.0470    5.0120 H       1     ****    0.0370 
@<TRIPOS>BOND
     1  2 1 1
     2  3 2 1
     3  4 3 1
     4  5 4 1
     5  6 5 1
     6  7 2 1
     7  7 6 1
     8  8 7 1
     9  9 8 1
    10 10 2 1
    11 10 9 1
    12 11 10 2
    13 12 6 1
    14 13 12 1
    15 14 13 2
    16 15 5 1
    17 15 14 1
    18 16 15 1
    19 17 16 1
    20 18 17 1
    21 19 14 1
    22 19 18 1
    23 20 18 1
    24 21 15 1
    25 22 20 1
    26 23 1 1
    27 24 1 1
    28 25 1 1
    29 26 3 1
    30 27 3 1
    31 28 4 1
    32 29 4 1
    33 30 5 1
    34 31 6 1
    35 32 7 1
    36 33 8 1
    37 34 8 1
    38 35 9 1
    39 36 9 1
    40 37 12 1
    41 38 12 1
    42 39 13 1
    43 40 16 1
    44 41 16 1
    45 42 17 1
    46 43 17 1
    47 44 18 1
    48 45 19 1
    49 46 19 1
    50 47 21 1
    51 48 21 1
    52 49 21 1
@<TRIPOS>SUBSTRUCTURE
1     ****    1
@<TRIPOS>MOLECULE
ZINC00018804
25 26 1 0 0 
SMALL
USER_CHARGES


@<TRIPOS>ATOM
      1 C1          4.1310   -9.9250   -0.6790 C.ar    1     ****   -0.1150 
      2 C2          2.9810   -9.5820    0.0320 C.ar    1     ****   -0.1360 
      3 C3          2.6350   -8.2400    0.1990 C.ar    1     ****   -0.1070 
      4 C4          3.4470   -7.2440   -0.3500 C.ar    1     ****   -0.1520 
      5 C5          4.6000   -7.5840   -1.0630 C.ar    1     ****   -0.0880 
      6 C6          4.9390   -8.9280   -1.2250 C.ar    1     ****   -0.1390 
      7 C7          3.0550   -5.8360   -0.1570 C.2     1     ****    0.5010 
      8 N1          3.7540   -4.8570   -0.6370 N.2     1     ****   -0.5700 
      9 C8          3.2570   -3.6090   -0.3640 C.2     1     ****   -0.0510 
     10 C9          2.7000   -2.8330   -1.3040 C.2     1     ****    0.0610 
     11 N2          2.2260   -1.5760   -1.0460 N.am    1     ****   -0.4640 
     12 C10         2.2870   -0.9830    0.2010 C.2     1     ****    0.8010 
     13 O1          1.8550    0.1480    0.4230 O.2     1     ****   -0.6320 
     14 N3          2.8780   -1.7660    1.1850 N.am    1     ****   -0.5790 
     15 C11         3.3920   -3.0420    1.0160 C.2     1     ****    0.7000 
     16 O2          3.9210   -3.6760    1.9270 O.2     1     ****   -0.6170 
     17 H1          1.8110   -1.0520   -1.8100 H       1     ****    0.3580 
     18 H2          2.9480   -1.3610    2.1120 H       1     ****    0.3560 
     19 H3          4.3980  -10.9700   -0.8070 H       1     ****    0.1330 
     20 H4          2.3530  -10.3600    0.4570 H       1     ****    0.1340 
     21 H5          1.7360   -7.9890    0.7560 H       1     ****    0.1350 
     22 H6          5.2420   -6.8210   -1.4950 H       1     ****    0.1480 
     23 H7          5.8350   -9.1980   -1.7780 H       1     ****    0.1350 
     24 H8          2.1260   -5.6580    0.4200 H       1     ****    0.0100 
     25 H9          2.5910   -3.1660   -2.3300 H       1     ****    0.1800 
@<TRIPOS>BOND
     1  2 1 ar
     2  3 2 ar
     3  4 3 ar
     4  5 4 ar
     5  6 1 ar
     6  6 5 ar
     7  7 4 1
     8  8 7 2
     9  9 8 1
    10 10 9 2
    11 11 10 1
    12 12 11 1
    13 13 12 2
    14 14 12 1
    15 15 9 1
    16 15 14 1
    17 16 15 2
    18 17 11 1
    19 18 14 1
    20 19 1 1
    21 20 2 1
    22 21 3 1
    23 22 5 1
    24 23 6 1
    25 24 7 1
    26 25 10 1
@<TRIPOS>SUBSTRUCTURE
1     ****    1
@<TRIPOS>MOLECULE
ZINC00019623
32 35 1 0 0 
SMALL
USER_CHARGES


@<TRIPOS>ATOM
      1 C1         -2.7470    1.6810   -7.9340 C.3     1     ****    0.1230 
      2 O1         -2.3360    0.3150   -7.8390 O.3     1     ****   -0.4300 
      3 C2         -1.0160    0.1330   -7.5910 C.2     1     ****    0.6420 
      4 O2         -0.1490    0.9740   -7.4360 O.2     1     ****   -0.5240 
      5 C3         -0.7700   -1.3100   -7.5320 C.ar    1     ****   -0.0510 
      6 C4         -1.2110   -1.9710   -6.3770 C.ar    1     ****   -0.0850 
      7 C5         -0.9780   -3.3320   -6.2160 C.ar    1     ****   -0.0100 
      8 C6         -1.4100   -4.0150   -5.0730 C.ar    1     ****   -0.2220 
      9 C7         -1.1430   -5.3710   -4.9690 C.ar    1     ****    0.3850 
     10 N1         -0.4850   -6.0870   -5.9030 N.ar    1     ****   -0.6520 
     11 C8         -0.0730   -5.4120   -7.0010 C.ar    1     ****    0.4170 
     12 C9         -0.2870   -4.0420   -7.2180 C.ar    1     ****   -0.1160 
     13 C10         0.1620   -3.3500   -8.3940 C.ar    1     ****   -0.0430 
     14 C11        -0.0740   -1.9790   -8.5790 C.ar    1     ****   -0.0230 
     15 C12         0.4470   -1.5090   -9.8650 C.ar    1     ****   -0.0510 
     16 C13         0.4070   -0.2300  -10.4870 C.ar    1     ****   -0.0830 
     17 C14         0.9870   -0.0100  -11.7400 C.ar    1     ****   -0.1290 
     18 C15         1.6140   -1.0470  -12.4090 C.ar    1     ****   -0.1120 
     19 C16         1.6670   -2.3170  -11.8390 C.ar    1     ****   -0.1010 
     20 C17         1.0780   -2.5310  -10.5750 C.ar    1     ****   -0.0620 
     21 S1          1.0280   -4.0120   -9.7270 S.2     1     ****    0.0520 
     22 H1         -3.8210    1.7000   -8.1370 H       1     ****    0.0670 
     23 H2         -2.5600    2.2010   -6.9890 H       1     ****    0.0470 
     24 H3         -2.2250    2.1780   -8.7580 H       1     ****    0.0450 
     25 H4         -1.7320   -1.4110   -5.6030 H       1     ****    0.1500 
     26 H5         -1.9450   -3.5070   -4.2760 H       1     ****    0.1480 
     27 H6         -1.4630   -5.9330   -4.0970 H       1     ****    0.0270 
     28 H7          0.4500   -6.0350   -7.7210 H       1     ****    0.0280 
     29 H8         -0.0810    0.6110  -10.0030 H       1     ****    0.1480 
     30 H9          0.9420    0.9790  -12.1890 H       1     ****    0.1380 
     31 H10         2.0640   -0.8730  -13.3820 H       1     ****    0.1370 
     32 H11         2.1550   -3.1300  -12.3700 H       1     ****    0.1410 
@<TRIPOS>BOND
     1  2 1 1
     2  3 2 1
     3  4 3 2
     4  5 3 1
     5  6 5 ar
     6  7 6 ar
     7  8 7 ar
     8  9 8 ar
     9 10 9 ar
    10 11 10 ar
    11 12 7 ar
    12 12 11 ar
    13 13 12 ar
    14 14 5 ar
    15 14 13 ar
    16 15 14 1
    17 16 15 ar
    18 17 16 ar
    19 18 17 ar
    20 19 18 ar
    21 20 15 ar
    22 20 19 ar
    23 21 13 1
    24 21 20 1
    25 22 1 1
    26 23 1 1
    27 24 1 1
    28 25 6 1
    29 26 8 1
    30 27 9 1
    31 28 11 1
    32 29 16 1
    33 30 17 1
    34 31 18 1
    35 32 19 1
@<TRIPOS>SUBSTRUCTURE
1     ****    1
@<TRIPOS>MOLECULE
ZINC00020220
42 45 1 0 0 
SMALL
USER_CHARGES


@<TRIPOS>ATOM
      1 C1          5.1860   -4.9570    2.2390 C.ar    1     ****   -0.0490 
      2 C2          5.3860   -6.2870    2.6110 C.ar    1     ****   -0.1940 
      3 C3          4.4510   -7.2780    2.2680 C.ar    1     ****    0.2200 
      4 C4          3.3000   -6.8810    1.5590 C.ar    1     ****   -0.2110 
      5 C5          3.0600   -5.5440    1.1740 C.ar    1     ****    0.0980 
      6 C6          4.0400   -4.6040    1.5290 C.ar    1     ****    0.0020 
      7 F1          3.8830   -3.3060    1.2250 F       1     ****   -0.1660 
      8 N1          1.9030   -5.2180    0.4610 N.pl3   1     ****   -0.6500 
      9 C7          1.8850   -4.0380   -0.4110 C.3     1     ****    0.1700 
     10 C8          0.8200   -4.1900   -1.4930 C.3     1     ****    0.0980 
     11 C9         -0.4480   -5.7560   -0.0380 C.3     1     ****    0.0980 
     12 C10         0.6130   -5.6120    1.0490 C.3     1     ****    0.1680 
     13 N2          4.6950   -8.6290    2.6460 N.pl3   1     ****   -0.5000 
     14 C11         5.7820   -8.9210    3.4470 C.2     1     ****    0.0570 
     15 C12         6.7280   -8.0590    3.8410 C.2     1     ****   -0.2550 
     16 C13         6.6050   -6.6500    3.3810 C.2     1     ****    0.5960 
     17 O1          7.4690   -5.8130    3.6130 O.2     1     ****   -0.5200 
     18 C14         7.8670   -8.5370    4.7470 C.2     1     ****    0.9330 
     19 O2          8.2220   -7.7240    5.6480 O.co2   1     ****   -0.7740 
     20 C15         3.7530   -9.7170    2.3130 C.3     1     ****    0.1520 
     21 C16         3.5150  -10.1610    0.8890 C.3     1     ****   -0.1520 
     22 C17         4.2090  -11.0790    1.8420 C.3     1     ****   -0.1100 
     23 H1          5.9030   -4.1830    2.5000 H       1     ****    0.1840 
     24 H2          2.5690   -7.6340    1.2740 H       1     ****    0.1360 
     25 H3          1.6840   -3.1390    0.1850 H       1     ****    0.0570 
     26 H4          2.8500   -3.9070   -0.9140 H       1     ****    0.1250 
     27 H5          0.6890   -3.2650   -2.0620 H       1     ****    0.0990 
     28 H6          1.0490   -5.0110   -2.1810 H       1     ****    0.1150 
     29 H7         -1.4450   -5.8980    0.3900 H       1     ****    0.0980 
     30 H8         -0.2240   -6.5810   -0.7220 H       1     ****    0.1140 
     31 H9          0.6680   -6.5610    1.5920 H       1     ****    0.1170 
     32 H10         0.3060   -4.8480    1.7750 H       1     ****    0.0480 
     33 H11         5.8180   -9.9590    3.7650 H       1     ****    0.1870 
     34 H12         2.8900   -9.7080    2.9740 H       1     ****    0.0770 
     35 H13         2.5000  -10.4030    0.6000 H       1     ****    0.0590 
     36 H14         4.1110   -9.7140    0.1020 H       1     ****    0.0850 
     37 H15         5.2650  -11.2550    1.6810 H       1     ****    0.1070 
     38 H16         3.6630  -11.9430    2.2020 H       1     ****    0.0780 
     39 N3         -0.4950   -4.5060   -0.8560 N.4     1     ****   -0.7610 
     40 H17        -1.2130   -4.6030   -1.5870 H       1     ****    0.4450 
     41 H18        -0.7950   -3.7160   -0.2680 H       1     ****    0.4450 
     42 O3          8.3140   -9.6940    4.5000 O.co2   1     ****   -0.8230 
@<TRIPOS>BOND
     1  2 1 ar
     2  3 2 ar
     3  4 3 ar
     4  5 4 ar
     5  6 1 ar
     6  6 5 ar
     7  7 6 1
     8  8 5 1
     9  9 8 1
    10 10 9 1
    11 12 8 1
    12 12 11 1
    13 13 3 1
    14 14 13 1
    15 15 14 2
    16 16 2 1
    17 16 15 1
    18 17 16 2
    19 18 15 1
    20 19 18 1
    21 20 13 1
    22 21 20 1
    23 22 20 1
    24 22 21 1
    25 23 1 1
    26 24 4 1
    27 25 9 1
    28 26 9 1
    29 27 10 1
    30 28 10 1
    31 29 11 1
    32 30 11 1
    33 31 12 1
    34 32 12 1
    35 33 14 1
    36 34 20 1
    37 35 21 1
    38 36 21 1
    39 37 22 1
    40 38 22 1
    41 39 10 1
    42 39 11 1
    43 40 39 1
    44 41 39 1
    45 42 18 2
@<TRIPOS>SUBSTRUCTURE
1     ****    1
@<TRIPOS>MOLECULE
ZINC00020365
29 31 1 0 0 
SMALL
USER_CHARGES


@<TRIPOS>ATOM
      1 C1          6.1210   -9.1420    0.4960 C.ar    1     ****   -0.1040 
      2 C2          6.5660   -7.8180    0.4470 C.ar    1     ****   -0.1510 
      3 C3          6.1390   -6.8760    1.3970 C.ar    1     ****    0.1300 
      4 C4          5.2580   -7.2970    2.4040 C.ar    1     ****   -0.1510 
      5 C5          4.8160   -8.6220    2.4470 C.ar    1     ****    0.0030 
      6 C6          5.2420   -9.5460    1.4970 C.ar    1     ****   -0.1260 
      7 BR1         3.6260   -9.1660    3.8150 Br      1     ****   -0.0770 
      8 N1          6.6050   -5.5480    1.2860 N.pl3   1     ****   -0.7210 
      9 C7          6.1370   -4.3460    1.8480 C.ar    1     ****    0.7050 
     10 C8          4.7710   -3.9740    1.8740 C.ar    1     ****   -0.4430 
     11 C9          3.7010   -4.6450    1.2590 C.ar    1     ****    0.4980 
     12 N2          2.4060   -4.2580    1.3150 N.ar    1     ****   -0.7180 
     13 C10         2.1270   -3.1240    1.9850 C.ar    1     ****    0.6660 
     14 C11         3.1270   -2.3820    2.6080 C.ar    1     ****   -0.3870 
     15 C12         4.4560   -2.7840    2.5430 C.ar    1     ****    0.4940 
     16 N3          5.3950   -2.0140    3.1080 N.ar    1     ****   -0.7120 
     17 C13         6.6650   -2.4220    2.9760 C.ar    1     ****    0.6810 
     18 N4          7.0890   -3.5380    2.3660 N.ar    1     ****   -0.7760 
     19 N5          0.8010   -2.7220    2.1030 N.pl3   1     ****   -0.9370 
     20 H1          7.6070   -5.5130    1.1150 H       1     ****    0.4330 
     21 H2          0.5940   -1.7380    2.2180 H       1     ****    0.4160 
     22 H3          0.1070   -3.3000    1.6460 H       1     ****    0.4250 
     23 H4          6.4610   -9.8550   -0.2500 H       1     ****    0.1420 
     24 H5          7.2470   -7.5220   -0.3480 H       1     ****    0.1440 
     25 H6          4.9280   -6.5990    3.1700 H       1     ****    0.1590 
     26 H7          4.9030  -10.5780    1.5240 H       1     ****    0.1510 
     27 H8          3.8530   -5.5400    0.6640 H       1     ****    0.0400 
     28 H9          2.8700   -1.4710    3.1440 H       1     ****    0.1620 
     29 H10         7.4270   -1.7860    3.4100 H       1     ****    0.0550 
@<TRIPOS>BOND
     1  2 1 ar
     2  3 2 ar
     3  4 3 ar
     4  5 4 ar
     5  6 1 ar
     6  6 5 ar
     7  7 5 1
     8  8 3 1
     9  9 8 1
    10 10 9 ar
    11 11 10 ar
    12 12 11 ar
    13 13 12 ar
    14 14 13 ar
    15 15 10 ar
    16 15 14 ar
    17 16 15 ar
    18 17 16 ar
    19 18 9 ar
    20 18 17 ar
    21 19 13 1
    22 20 8 1
    23 21 19 1
    24 22 19 1
    25 23 1 1
    26 24 2 1
    27 25 4 1
    28 26 6 1
    29 27 11 1
    30 28 14 1
    31 29 17 1
@<TRIPOS>SUBSTRUCTURE
1     ****    1
@<TRIPOS>MOLECULE
ZINC00021105
17 17 1 0 0 
SMALL
USER_CHARGES


@<TRIPOS>ATOM
      1 C1          4.8130   -8.3720   -0.3830 C.ar    1     ****   -0.0010 
      2 C2          3.8400   -7.3820   -0.5110 C.ar    1     ****   -0.3200 
      3 C3          2.8320   -7.5360   -1.4590 C.ar    1     ****    0.6650 
      4 N1          2.7860   -8.6140   -2.2770 N.ar    1     ****   -0.7370 
      5 C4          3.7420   -9.5650   -2.1330 C.ar    1     ****    0.4710 
      6 C5          4.7760   -9.4910   -1.2120 C.ar    1     ****   -0.3200 
      7 C6          5.8110  -10.5420   -1.0600 C.2     1     ****    0.6850 
      8 O1          6.4680  -10.6180   -0.0260 O.2     1     ****   -0.6200 
      9 N2          5.9990  -11.3940   -2.1240 N.am    1     ****   -0.6740 
     10 N3          1.8860   -6.5310   -1.6210 N.pl3   1     ****   -0.9390 
     11 H1          6.6970  -12.1270   -2.0600 H       1     ****    0.3170 
     12 H2          5.5090  -11.3220   -3.0070 H       1     ****    0.3050 
     13 H3          1.1810   -6.6780   -2.3320 H       1     ****    0.4240 
     14 H4          1.6390   -5.9570   -0.8240 H       1     ****    0.4150 
     15 H5          5.5960   -8.2490    0.3620 H       1     ****    0.1640 
     16 H6          3.8790   -6.5040    0.1270 H       1     ****    0.1460 
     17 H7          3.6150  -10.4090   -2.8020 H       1     ****    0.0200 
@<TRIPOS>BOND
     1  2 1 ar
     2  3 2 ar
     3  4 3 ar
     4  5 4 ar
     5  6 1 ar
     6  6 5 ar
     7  7 6 1
     8  8 7 2
     9  9 7 1
    10 10 3 1
    11 11 9 1
    12 12 9 1
    13 13 10 1
    14 14 10 1
    15 15 1 1
    16 16 2 1
    17 17 5 1
@<TRIPOS>SUBSTRUCTURE
1     ****    1
@<TRIPOS>MOLECULE
ZINC00021240
25 26 1 0 0 
SMALL
USER_CHARGES


@<TRIPOS>ATOM
      1 C1          5.2130   -8.2990    0.6720 C.3     1     ****   -0.1320 
      2 C2          3.8720   -8.6060    0.0280 C.3     1     ****    0.1210 
      3 O1          2.8400   -7.7900    0.5790 O.3     1     ****   -0.2990 
      4 C3          2.6180   -6.5220    0.0840 C.2     1     ****    0.0890 
      5 C4          3.2990   -5.9260   -0.9060 C.2     1     ****   -0.3230 
      6 C5          3.0020   -4.5590   -1.3840 C.2     1     ****    0.5870 
      7 O2          3.6570   -4.0610   -2.2910 O.2     1     ****   -0.5270 
      8 C6          1.9030   -3.8290   -0.7340 C.ar    1     ****   -0.1270 
      9 C7          1.5880   -2.5320   -1.1560 C.ar    1     ****   -0.0880 
     10 C8          0.5460   -1.8340   -0.5430 C.ar    1     ****   -0.1120 
     11 C9         -0.1790   -2.4280    0.4880 C.ar    1     ****   -0.1200 
     12 C10         0.1340   -3.7210    0.9100 C.ar    1     ****   -0.0830 
     13 C11         1.1790   -4.4240    0.2970 C.ar    1     ****   -0.1380 
     14 C12         1.5010   -5.7910    0.7510 C.2     1     ****    0.5770 
     15 O3          0.8610   -6.3100    1.6600 O.2     1     ****   -0.4780 
     16 H1          5.9840   -8.9810    0.3030 H       1     ****    0.0510 
     17 H2          5.5310   -7.2720    0.4670 H       1     ****    0.0490 
     18 H3          5.1460   -8.3980    1.7610 H       1     ****    0.0570 
     19 H4          3.9080   -8.5460   -1.0650 H       1     ****    0.0490 
     20 H5          3.6060   -9.6420    0.2660 H       1     ****    0.0790 
     21 H6          4.1210   -6.4090   -1.4210 H       1     ****    0.1630 
     22 H7          2.1420   -2.0520   -1.9590 H       1     ****    0.1620 
     23 H8          0.3010   -0.8280   -0.8700 H       1     ****    0.1430 
     24 H9         -0.9900   -1.8840    0.9640 H       1     ****    0.1430 
     25 H10        -0.4450   -4.1640    1.7160 H       1     ****    0.1600 
@<TRIPOS>BOND
     1  2 1 1
     2  3 2 1
     3  4 3 1
     4  5 4 2
     5  6 5 1
     6  7 6 2
     7  8 6 1
     8  9 8 ar
     9 10 9 ar
    10 11 10 ar
    11 12 11 ar
    12 13 8 ar
    13 13 12 ar
    14 14 4 1
    15 14 13 1
    16 15 14 2
    17 16 1 1
    18 17 1 1
    19 18 1 1
    20 19 2 1
    21 20 2 1
    22 21 5 1
    23 22 9 1
    24 23 10 1
    25 24 11 1
    26 25 12 1
@<TRIPOS>SUBSTRUCTURE
1     ****    1
@<TRIPOS>MOLECULE
ZINC00022437
40 43 1 0 0 
SMALL
USER_CHARGES


@<TRIPOS>ATOM
      1 C1          7.0950  -10.3820   -1.2940 C.3     1     ****    0.1140 
      2 O1          5.9600   -9.5380   -1.1410 O.3     1     ****   -0.3280 
      3 C2          5.8730   -8.8270    0.0270 C.ar    1     ****    0.1340 
      4 C3          6.7940   -8.8570    1.0710 C.ar    1     ****   -0.2150 
      5 C4          6.5830   -8.0810    2.2160 C.ar    1     ****   -0.0540 
      6 C5          5.4500   -7.2600    2.3490 C.ar    1     ****   -0.1820 
      7 C6          4.5230   -7.2250    1.2800 C.ar    1     ****   -0.0220 
      8 C7          4.7430   -8.0100    0.1360 C.ar    1     ****   -0.1640 
      9 C8          3.3070   -6.3290    1.3420 C.3     1     ****   -0.0390 
     10 C9          2.2810   -6.7490    2.4000 C.3     1     ****   -0.0680 
     11 C10         2.8640   -7.2320    3.7310 C.3     1     ****   -0.0270 
     12 C11         4.0080   -6.3780    4.2320 C.ar    1     ****   -0.2690 
     13 C12         5.2470   -6.4630    3.5780 C.ar    1     ****    0.5240 
     14 N1          6.3460   -5.7960    4.0020 N.ar    1     ****   -0.6910 
     15 C13         6.2630   -5.0110    5.0830 C.ar    1     ****    0.4250 
     16 C14         7.4190   -4.3590    5.5020 C.ar    1     ****   -0.1720 
     17 C15         7.4290   -3.5200    6.6150 C.ar    1     ****   -0.1190 
     18 C16         6.2600   -3.3230    7.3310 C.ar    1     ****   -0.1400 
     19 C17         5.0900   -3.9650    6.9270 C.ar    1     ****   -0.1070 
     20 C18         5.0610   -4.8220    5.7970 C.ar    1     ****   -0.1800 
     21 C19         3.8970   -5.5030    5.3330 C.ar    1     ****    0.1960 
     22 N2          2.6810   -5.3690    6.0070 N.pl3   1     ****   -0.8270 
     23 H1          2.5740   -4.6930    6.7480 H       1     ****    0.4010 
     24 H2          1.8260   -5.7080    5.5880 H       1     ****    0.4030 
     25 H3          7.0150  -10.8740   -2.2680 H       1     ****    0.0660 
     26 H4          8.0230   -9.8010   -1.2900 H       1     ****    0.0360 
     27 H5          7.1120  -11.1640   -0.5270 H       1     ****    0.0330 
     28 H6          7.6870   -9.4730    1.0340 H       1     ****    0.1390 
     29 H7          7.3180   -8.1330    3.0180 H       1     ****    0.1480 
     30 H8          4.0280   -7.9830   -0.6830 H       1     ****    0.1490 
     31 H9          3.6410   -5.3000    1.5300 H       1     ****    0.0600 
     32 H10         2.8080   -6.2910    0.3650 H       1     ****    0.0490 
     33 H11         1.6090   -5.9000    2.5810 H       1     ****    0.0340 
     34 H12         1.6540   -7.5540    1.9950 H       1     ****    0.0440 
     35 H13         2.0580   -7.3210    4.4660 H       1     ****    0.0440 
     36 H14         3.2240   -8.2650    3.6240 H       1     ****    0.0630 
     37 H15         8.3460   -4.5020    4.9510 H       1     ****    0.1510 
     38 H16         8.3470   -3.0250    6.9170 H       1     ****    0.1350 
     39 H17         6.2540   -2.6720    8.2000 H       1     ****    0.1330 
     40 H18         4.1980   -3.7830    7.5190 H       1     ****    0.1260 
@<TRIPOS>BOND
     1  2 1 1
     2  3 2 1
     3  4 3 ar
     4  5 4 ar
     5  6 5 ar
     6  7 6 ar
     7  8 3 ar
     8  8 7 ar
     9  9 7 1
    10 10 9 1
    11 11 10 1
    12 12 11 1
    13 13 6 1
    14 13 12 ar
    15 14 13 ar
    16 15 14 ar
    17 16 15 ar
    18 17 16 ar
    19 18 17 ar
    20 19 18 ar
    21 20 15 ar
    22 20 19 ar
    23 21 12 ar
    24 21 20 ar
    25 22 21 1
    26 23 22 1
    27 24 22 1
    28 25 1 1
    29 26 1 1
    30 27 1 1
    31 28 4 1
    32 29 5 1
    33 30 8 1
    34 31 9 1
    35 32 9 1
    36 33 10 1
    37 34 10 1
    38 35 11 1
    39 36 11 1
    40 37 16 1
    41 38 17 1
    42 39 18 1
    43 40 19 1
@<TRIPOS>SUBSTRUCTURE
1     ****    1
@<TRIPOS>MOLECULE
ZINC00023810
21 22 1 0 0 
SMALL
USER_CHARGES


@<TRIPOS>ATOM
      1 C1          3.3900   -8.9760   -0.0800 C.ar    1     ****    0.2950 
      2 C2          4.1150   -7.9690   -0.6720 C.ar    1     ****    0.2690 
      3 N1          3.7930   -6.6680   -0.5150 N.ar    1     ****   -0.5830 
      4 C3          2.7150   -6.3830    0.2580 C.ar    1     ****    0.2330 
      5 C4          1.9970   -7.4150    0.8470 C.ar    1     ****    0.3300 
      6 N2          2.3170   -8.7200    0.6910 N.ar    1     ****   -0.6430 
      7 C5          2.3730   -4.9670    0.4240 C.ar    1     ****    0.6840 
      8 N3          3.1460   -4.0610   -0.1980 N.ar    1     ****   -0.7830 
      9 C6          2.8010   -2.7770   -0.0220 C.ar    1     ****    0.9350 
     10 N4          1.7530   -2.3850    0.7230 N.ar    1     ****   -0.8540 
     11 C7          1.0320   -3.3550    1.3100 C.ar    1     ****    0.9430 
     12 N5          1.3080   -4.6630    1.1860 N.ar    1     ****   -0.8380 
     13 N6         -0.0520   -2.9870    2.0820 N.pl3   1     ****   -0.9630 
     14 N7          3.5640   -1.8050   -0.6400 N.pl3   1     ****   -0.9590 
     15 H1         -0.2780   -2.0090    2.1890 H       1     ****    0.4510 
     16 H2         -0.6090   -3.6990    2.5330 H       1     ****    0.4510 
     17 H3          4.3550   -2.0770   -1.2040 H       1     ****    0.4550 
     18 H4          3.3230   -0.8320   -0.5220 H       1     ****    0.4500 
     19 H5          3.6490  -10.0200   -0.2070 H       1     ****    0.0350 
     20 H6          4.9780   -8.1730   -1.2930 H       1     ****    0.0370 
     21 H7          1.1290   -7.2370    1.4730 H       1     ****    0.0580 
@<TRIPOS>BOND
     1  2 1 ar
     2  3 2 ar
     3  4 3 ar
     4  5 4 ar
     5  6 1 ar
     6  6 5 ar
     7  7 4 1
     8  8 7 ar
     9  9 8 ar
    10 10 9 ar
    11 11 10 ar
    12 12 7 ar
    13 12 11 ar
    14 13 11 1
    15 14 9 1
    16 15 13 1
    17 16 13 1
    18 17 14 1
    19 18 14 1
    20 19 1 1
    21 20 2 1
    22 21 5 1
@<TRIPOS>SUBSTRUCTURE
1     ****    1
@<TRIPOS>MOLECULE
ZINC00024006
22 23 1 0 0 
SMALL
USER_CHARGES


@<TRIPOS>ATOM
      1 C1          2.2230   -3.7890    1.2860 C.ar    1     ****   -0.0630 
      2 C2          2.1710   -3.4680    2.6480 C.ar    1     ****   -0.1320 
      3 C3          3.1700   -3.9120    3.5120 C.ar    1     ****    0.0560 
      4 C4          4.2130   -4.6730    2.9850 C.ar    1     ****   -0.1560 
      5 C5          4.2780   -5.0070    1.6260 C.ar    1     ****   -0.0700 
      6 C6          3.2710   -4.5640    0.7590 C.ar    1     ****   -0.1050 
      7 C7          3.2870   -4.8750   -0.6680 C.2     1     ****    0.4100 
      8 C8          3.9960   -5.9140   -1.2390 C.2     1     ****   -0.2600 
      9 S1          3.7450   -5.9380   -2.9340 S.2     1     ****   -0.0900 
     10 C9          2.7040   -4.5720   -2.7960 C.2     1     ****    0.6140 
     11 N1          2.5480   -4.1210   -1.5700 N.2     1     ****   -0.6890 
     12 N2          2.1200   -4.0490   -3.8900 N.pl3   1     ****   -0.8910 
     13 N3          5.2790   -5.1490    3.8330 N.2     1     ****    0.3120 
     14 O1          6.0950   -4.3100    4.2340 O.2     1     ****   -0.1830 
     15 O2          5.3000   -6.3610    4.0780 O.3     1     ****   -0.1970 
     16 CL1         3.0480   -3.5110    5.1860 Cl      1     ****   -0.0420 
     17 H1          2.2710   -4.4330   -4.8160 H       1     ****    0.3980 
     18 H2          1.5040   -3.2450   -3.8290 H       1     ****    0.4080 
     19 H3          1.4220   -3.4270    0.6430 H       1     ****    0.1680 
     20 H4          1.3390   -2.8730    3.0180 H       1     ****    0.1610 
     21 H5          5.1170   -5.5930    1.2590 H       1     ****    0.1620 
     22 H6          4.6320   -6.6530   -0.7730 H       1     ****    0.1860 
@<TRIPOS>BOND
     1  2 1 ar
     2  3 2 ar
     3  4 3 ar
     4  5 4 ar
     5  6 1 ar
     6  6 5 ar
     7  7 6 1
     8  8 7 2
     9  9 8 1
    10 10 9 1
    11 11 7 1
    12 11 10 2
    13 12 10 1
    14 13 4 1
    15 14 13 2
    16 15 13 1
    17 16 3 1
    18 17 12 1
    19 18 12 1
    20 19 1 1
    21 20 2 1
    22 21 5 1
    23 22 8 1
@<TRIPOS>SUBSTRUCTURE
1     ****    1
@<TRIPOS>MOLECULE
ZINC00024318
19 20 1 0 0 
SMALL
USER_CHARGES


@<TRIPOS>ATOM
      1 C1          2.1270   -8.7170   -0.8480 C.ar    1     ****   -0.1120 
      2 C2          1.0160   -8.0120   -0.3770 C.ar    1     ****   -0.1190 
      3 C3          1.2150   -6.7210    0.0670 C.ar    1     ****    0.0680 
      4 C4          2.4590   -6.1330    0.0540 C.ar    1     ****    0.0450 
      5 C5          3.5760   -6.8010   -0.4050 C.ar    1     ****   -0.0780 
      6 C6          3.3990   -8.1120   -0.8610 C.ar    1     ****   -0.1330 
      7 C7          4.5350   -8.9000   -1.3670 C.2     1     ****    0.4050 
      8 N1          5.7370   -8.4240   -1.4150 N.2     1     ****   -0.4400 
      9 O1          6.5850   -9.4040   -1.9400 O.3     1     ****   -0.3560 
     10 O2          2.4330   -4.8600    0.5330 O.3     1     ****   -0.3330 
     11 C8          1.0340   -4.7130    0.8500 C.3     1     ****    0.3210 
     12 O3          0.2550   -5.8900    0.5570 O.3     1     ****   -0.3330 
     13 H1          7.4440   -8.9470   -1.9300 H       1     ****    0.4410 
     14 H2          1.9930   -9.7360   -1.2030 H       1     ****    0.1410 
     15 H3          0.0320   -8.4680   -0.3630 H       1     ****    0.1580 
     16 H4          4.5460   -6.3150   -0.4050 H       1     ****    0.1710 
     17 H5          4.3190   -9.9280   -1.7100 H       1     ****    0.0050 
     18 H6          0.9380   -4.4850    1.9180 H       1     ****    0.0740 
     19 H7          0.6300   -3.8720    0.2740 H       1     ****    0.0740 
@<TRIPOS>BOND
     1  2 1 ar
     2  3 2 ar
     3  4 3 ar
     4  5 4 ar
     5  6 1 ar
     6  6 5 ar
     7  7 6 1
     8  8 7 2
     9  9 8 1
    10 10 4 1
    11 11 10 1
    12 12 3 1
    13 12 11 1
    14 13 9 1
    15 14 1 1
    16 15 2 1
    17 16 5 1
    18 17 7 1
    19 18 11 1
    20 19 11 1
@<TRIPOS>SUBSTRUCTURE
1     ****    1
@<TRIPOS>MOLECULE
ZINC00024749
30 32 1 0 0 
SMALL
USER_CHARGES


@<TRIPOS>ATOM
      1 C1          5.0370   -9.9890    0.4000 C.ar    1     ****   -0.1200 
      2 C2          4.6120   -9.2240   -0.6850 C.ar    1     ****   -0.1310 
      3 C3          4.5140   -7.8360   -0.5670 C.ar    1     ****   -0.1110 
      4 C4          4.8450   -7.2010    0.6390 C.ar    1     ****   -0.0900 
      5 C5          5.2650   -7.9810    1.7250 C.ar    1     ****   -0.1100 
      6 C6          5.3630   -9.3680    1.6040 C.ar    1     ****   -0.1310 
      7 C7          4.7230   -5.7050    0.7730 C.3     1     ****    0.0200 
      8 S1          3.0580   -5.2280    1.3490 S.3     1     ****   -0.2320 
      9 C8          3.1960   -3.4330    1.4170 C.ar    1     ****    0.5400 
     10 C9          2.1060   -2.6320    1.8260 C.ar    1     ****   -0.2590 
     11 C10         0.8250   -3.1050    2.2160 C.ar    1     ****   -0.0910 
     12 C11        -0.1830   -2.2240    2.6020 C.ar    1     ****   -0.1340 
     13 C12         0.0660   -0.8610    2.6060 C.ar    1     ****   -0.1060 
     14 C13         1.3210   -0.3860    2.2250 C.ar    1     ****   -0.1760 
     15 C14         2.3450   -1.2440    1.8350 C.ar    1     ****    0.4230 
     16 N1          3.5240   -0.7160    1.4810 N.ar    1     ****   -0.6920 
     17 C15         4.4850   -1.5750    1.1120 C.ar    1     ****    0.6500 
     18 N2          4.3880   -2.9090    1.0590 N.ar    1     ****   -0.7370 
     19 H1          5.1120  -11.0690    0.3070 H       1     ****    0.1340 
     20 H2          4.3550   -9.7070   -1.6230 H       1     ****    0.1350 
     21 H3          4.1760   -7.2540   -1.4210 H       1     ****    0.1370 
     22 H4          5.5190   -7.5130    2.6730 H       1     ****    0.1370 
     23 H5          5.6910   -9.9650    2.4510 H       1     ****    0.1350 
     24 H6          5.4770   -5.3390    1.4800 H       1     ****    0.0880 
     25 H7          4.9280   -5.2330   -0.1950 H       1     ****    0.0890 
     26 H8          0.5960   -4.1680    2.2240 H       1     ****    0.1490 
     27 H9         -1.1570   -2.6040    2.8970 H       1     ****    0.1390 
     28 H10        -0.7120   -0.1640    2.9050 H       1     ****    0.1380 
     29 H11         1.4960    0.6890    2.2350 H       1     ****    0.1540 
     30 H12         5.4370   -1.1450    0.8270 H       1     ****    0.0530 
@<TRIPOS>BOND
     1  2 1 ar
     2  3 2 ar
     3  4 3 ar
     4  5 4 ar
     5  6 1 ar
     6  6 5 ar
     7  7 4 1
     8  8 7 1
     9  9 8 1
    10 10 9 ar
    11 11 10 ar
    12 12 11 ar
    13 13 12 ar
    14 14 13 ar
    15 15 10 ar
    16 15 14 ar
    17 16 15 ar
    18 17 16 ar
    19 18 9 ar
    20 18 17 ar
    21 19 1 1
    22 20 2 1
    23 21 3 1
    24 22 5 1
    25 23 6 1
    26 24 7 1
    27 25 7 1
    28 26 11 1
    29 27 12 1
    30 28 13 1
    31 29 14 1
    32 30 17 1
@<TRIPOS>SUBSTRUCTURE
1     ****    1
@<TRIPOS>MOLECULE
ZINC00024750
27 29 1 0 0 
SMALL
USER_CHARGES


@<TRIPOS>ATOM
      1 C1          6.4660   -7.4090   -1.7690 C.ar    1     ****   -0.1330 
      2 C2          5.7570   -8.5450   -2.1280 C.ar    1     ****   -0.1060 
      3 C3          4.4180   -8.6700   -1.7570 C.ar    1     ****   -0.1760 
      4 C4          3.7600   -7.6820   -1.0290 C.ar    1     ****    0.4240 
      5 C5          4.4690   -6.5230   -0.6580 C.ar    1     ****   -0.2590 
      6 C6          5.8310   -6.4050   -1.0410 C.ar    1     ****   -0.0910 
      7 C7          3.7300   -5.5700    0.0790 C.ar    1     ****    0.5390 
      8 N1          2.4320   -5.7510    0.4050 N.ar    1     ****   -0.7380 
      9 C8          1.8760   -6.8970   -0.0080 C.ar    1     ****    0.6510 
     10 N2          2.4740   -7.8710   -0.7090 N.ar    1     ****   -0.6900 
     11 S1          4.4840   -4.0290    0.6270 S.3     1     ****   -0.2230 
     12 C9          3.1280   -3.2780    1.5900 C.3     1     ****   -0.0560 
     13 C10         3.5610   -1.9790    2.1550 C.2     1     ****    0.2320 
     14 C11         3.5170   -0.6810    1.6880 C.2     1     ****   -0.2270 
     15 C12         4.0840    0.1270    2.7020 C.2     1     ****   -0.2690 
     16 C13         4.4320   -0.7280    3.7220 C.2     1     ****    0.2520 
     17 O1          4.1170   -2.0090    3.4010 O.2     1     ****   -0.3550 
     18 H1          7.5090   -7.3020   -2.0530 H       1     ****    0.1390 
     19 H2          6.2400   -9.3340   -2.6960 H       1     ****    0.1380 
     20 H3          3.8790   -9.5700   -2.0490 H       1     ****    0.1550 
     21 H4          6.4170   -5.5290   -0.7760 H       1     ****    0.1480 
     22 H5          0.8350   -7.0530    0.2490 H       1     ****    0.0540 
     23 H6          2.2620   -3.1230    0.9380 H       1     ****    0.0990 
     24 H7          2.8340   -3.9560    2.3980 H       1     ****    0.1070 
     25 H8          3.1260   -0.3590    0.7330 H       1     ****    0.1670 
     26 H9          4.2200    1.1980    2.6920 H       1     ****    0.1640 
     27 H10         4.8890   -0.5880    4.6910 H       1     ****    0.0560 
@<TRIPOS>BOND
     1  2 1 ar
     2  3 2 ar
     3  4 3 ar
     4  5 4 ar
     5  6 1 ar
     6  6 5 ar
     7  7 5 ar
     8  8 7 ar
     9  9 8 ar
    10 10 4 ar
    11 10 9 ar
    12 11 7 1
    13 12 11 1
    14 13 12 1
    15 14 13 2
    16 15 14 1
    17 16 15 2
    18 17 13 1
    19 17 16 1
    20 18 1 1
    21 19 2 1
    22 20 3 1
    23 21 6 1
    24 22 9 1
    25 23 12 1
    26 24 12 1
    27 25 14 1
    28 26 15 1
    29 27 16 1
@<TRIPOS>SUBSTRUCTURE
1     ****    1
@<TRIPOS>MOLECULE
ZINC00025103
24 24 1 0 0 
SMALL
USER_CHARGES


@<TRIPOS>ATOM
      1 C1          6.0290   -8.7390   -1.4470 C.3     1     ****   -0.1020 
      2 C2          6.2780   -9.8840   -0.4870 C.3     1     ****   -0.1050 
      3 C3          5.0030   -9.9140    0.3250 C.3     1     ****    0.1210 
      4 C4          5.3220   -7.6850   -0.6100 C.3     1     ****    0.1100 
      5 C5          3.2520   -8.1650    0.8220 C.3     1     ****    0.0820 
      6 C6          3.0710   -6.7460    1.3450 C.3     1     ****    0.0760 
      7 H1          1.4900   -5.5540    2.0050 H       1     ****    0.5000 
      8 H2          1.0430   -6.6110    0.8130 H       1     ****    0.4800 
      9 H3          5.3720   -9.0670   -2.2620 H       1     ****    0.1100 
     10 H4          6.9510   -8.3590   -1.8970 H       1     ****    0.1190 
     11 H5          6.4660  -10.8300   -1.0030 H       1     ****    0.1260 
     12 H6          7.1390   -9.6640    0.1550 H       1     ****    0.1080 
     13 H7          4.1680  -10.3410   -0.2410 H       1     ****    0.1100 
     14 H8          5.1070  -10.4040    1.2970 H       1     ****    0.1230 
     15 H9          6.0190   -6.9590   -0.1790 H       1     ****    0.1140 
     16 H10         4.5360   -7.1720   -1.1720 H       1     ****    0.0980 
     17 H11         2.7030   -8.3360   -0.1100 H       1     ****    0.1290 
     18 H12         2.9230   -8.8940    1.5720 H       1     ****    0.1240 
     19 H13         3.6210   -6.5810    2.2770 H       1     ****    0.1360 
     20 H14         3.3640   -5.9890    0.6110 H       1     ****    0.1380 
     21 N1          4.7080   -8.4450    0.5570 N.4     1     ****   -0.6980 
     22 H15         5.2410   -8.1810    1.3980 H       1     ****    0.4580 
     23 N2          1.6370   -6.5080    1.6480 N.4     1     ****   -0.8350 
     24 H16         1.2810   -7.1550    2.3650 H       1     ****    0.4800 
@<TRIPOS>BOND
     1  2 1 1
     2  3 2 1
     3  4 1 1
     4  6 5 1
     5  9 1 1
     6 10 1 1
     7 11 2 1
     8 12 2 1
     9 13 3 1
    10 14 3 1
    11 15 4 1
    12 16 4 1
    13 17 5 1
    14 18 5 1
    15 19 6 1
    16 20 6 1
    17 21 3 1
    18 21 4 1
    19 21 5 1
    20 22 21 1
    21 23 6 1
    22 23 7 1
    23 23 8 1
    24 24 23 1
@<TRIPOS>SUBSTRUCTURE
1     ****    1
@<TRIPOS>MOLECULE
ZINC00027695
46 49 1 0 0 
SMALL
USER_CHARGES


@<TRIPOS>ATOM
      1 C1         -0.9650    1.7010   -0.1350 C.3     1     ****   -0.0940 
      2 C2         -1.9410    0.7170    0.5410 C.3     1     ****   -0.0410 
      3 C3         -1.2280   -0.5710    0.9790 C.3     1     ****   -0.0580 
      4 C4         -0.7000   -1.4030   -0.1840 C.2     1     ****    0.2060 
      5 C5         -1.3250   -1.3850   -1.3850 C.2     1     ****   -0.3020 
      6 C6         -0.8610   -2.1170   -2.6400 C.3     1     ****    0.3050 
      7 N1          0.5910   -2.0880   -2.7560 N.pl3   1     ****   -0.7050 
      8 C7          1.3980   -2.8920   -1.9620 C.ar    1     ****    0.0800 
      9 C8          2.3620   -3.6980   -2.6020 C.ar    1     ****   -0.1490 
     10 C9          3.1930   -4.5540   -1.8830 C.ar    1     ****   -0.1340 
     11 C10         3.0760   -4.6200   -0.5030 C.ar    1     ****   -0.1220 
     12 C11         2.1340   -3.8240    0.1460 C.ar    1     ****   -0.1650 
     13 C12         1.2870   -2.9470   -0.5670 C.ar    1     ****    0.1440 
     14 N2          0.3990   -2.1570    0.1840 N.pl3   1     ****   -0.6270 
     15 C13        -1.4000   -1.5450   -3.9590 C.ar    1     ****   -0.0940 
     16 C14        -1.1720   -0.2050   -4.3210 C.ar    1     ****   -0.1140 
     17 C15        -1.6500    0.2940   -5.5330 C.ar    1     ****   -0.1370 
     18 C16        -2.3520   -0.5380   -6.4030 C.ar    1     ****   -0.1240 
     19 C17        -2.5750   -1.8710   -6.0630 C.ar    1     ****   -0.1320 
     20 C18        -2.0990   -2.3750   -4.8510 C.ar    1     ****   -0.0990 
     21 C19        -2.6900   -0.7380   -1.4190 C.2     1     ****    0.5950 
     22 O1         -3.5410   -1.1100   -2.2290 O.2     1     ****   -0.5460 
     23 C20        -3.0680    0.3290   -0.4130 C.3     1     ****   -0.1760 
     24 C21        -2.5350    1.4140    1.7790 C.3     1     ****   -0.0910 
     25 H1          0.9660   -1.8890   -3.6790 H       1     ****    0.3880 
     26 H2          0.5810   -2.1730    1.1830 H       1     ****    0.4330 
     27 H3         -0.1350    1.9530    0.5360 H       1     ****    0.0350 
     28 H4         -0.5330    1.3000   -1.0570 H       1     ****    0.0580 
     29 H5         -1.4720    2.6370   -0.3980 H       1     ****    0.0370 
     30 H6         -0.3970   -0.2910    1.6420 H       1     ****    0.0540 
     31 H7         -1.8990   -1.2040    1.5760 H       1     ****    0.0650 
     32 H8         -1.2420   -3.1500   -2.5620 H       1     ****    0.0500 
     33 H9          2.4620   -3.6670   -3.6860 H       1     ****    0.1340 
     34 H10         3.9240   -5.1680   -2.4010 H       1     ****    0.1350 
     35 H11         3.7160   -5.2850    0.0700 H       1     ****    0.1340 
     36 H12         2.0650   -3.8860    1.2300 H       1     ****    0.1300 
     37 H13        -0.6200    0.4580   -3.6590 H       1     ****    0.1400 
     38 H14        -1.4730    1.3320   -5.8000 H       1     ****    0.1290 
     39 H15        -2.7240   -0.1490   -7.3460 H       1     ****    0.1290 
     40 H16        -3.1190   -2.5210   -6.7420 H       1     ****    0.1310 
     41 H17        -2.2810   -3.4180   -4.6060 H       1     ****    0.1350 
     42 H18        -3.9150   -0.0780    0.1550 H       1     ****    0.0710 
     43 H19        -3.4270    1.2060   -0.9640 H       1     ****    0.0780 
     44 H20        -3.2290    0.7560    2.3140 H       1     ****    0.0360 
     45 H21        -1.7480    1.7070    2.4840 H       1     ****    0.0370 
     46 H22        -3.0860    2.3180    1.4970 H       1     ****    0.0430 
@<TRIPOS>BOND
     1  2 1 1
     2  3 2 1
     3  4 3 1
     4  5 4 2
     5  6 5 1
     6  7 6 1
     7  8 7 1
     8  9 8 ar
     9 10 9 ar
    10 11 10 ar
    11 12 11 ar
    12 13 8 ar
    13 13 12 ar
    14 14 4 1
    15 14 13 1
    16 15 6 1
    17 16 15 ar
    18 17 16 ar
    19 18 17 ar
    20 19 18 ar
    21 20 15 ar
    22 20 19 ar
    23 21 5 1
    24 22 21 2
    25 23 2 1
    26 23 21 1
    27 24 2 1
    28 25 7 1
    29 26 14 1
    30 27 1 1
    31 28 1 1
    32 29 1 1
    33 30 3 1
    34 31 3 1
    35 32 6 1
    36 33 9 1
    37 34 10 1
    38 35 11 1
    39 36 12 1
    40 37 16 1
    41 38 17 1
    42 39 18 1
    43 40 19 1
    44 41 20 1
    45 42 23 1
    46 43 23 1
    47 44 24 1
    48 45 24 1
    49 46 24 1
@<TRIPOS>SUBSTRUCTURE
1     ****    1
@<TRIPOS>MOLECULE
ZINC00027797
15 15 1 0 0 
SMALL
USER_CHARGES


@<TRIPOS>ATOM
      1 C1          3.2690   -2.8050    6.8650 C.ar    1     ****    0.0350 
      2 C2          2.3180   -2.7530    5.8510 C.ar    1     ****   -0.2150 
      3 C3          2.6560   -2.0890    4.6860 C.ar    1     ****    0.5110 
      4 N1          3.8510   -1.4880    4.4810 N.ar    1     ****   -0.7400 
      5 C4          4.7710   -1.5250    5.4770 C.ar    1     ****    0.7350 
      6 C5          4.5130   -2.1920    6.6810 C.ar    1     ****   -0.2320 
      7 C6          5.4850   -2.2670    7.7300 C.1     1     ****    0.2370 
      8 N2          6.2720   -2.3250    8.5810 N.1     1     ****   -0.3640 
      9 N3          6.0060   -0.9360    5.2300 N.pl3   1     ****   -0.9570 
     10 C7          1.0390   -3.3670    6.0050 C.1     1     ****    0.2430 
     11 N4         -0.0020   -3.8670    6.1290 N.1     1     ****   -0.3600 
     12 H1          6.5410   -0.5550    6.0000 H       1     ****    0.4500 
     13 H2          6.1210   -0.4960    4.3240 H       1     ****    0.4540 
     14 H3          3.0470   -3.3240    7.7960 H       1     ****    0.1610 
     15 H4          1.9640   -2.0130    3.8520 H       1     ****    0.0400 
@<TRIPOS>BOND
     1  2 1 ar
     2  3 2 ar
     3  4 3 ar
     4  5 4 ar
     5  6 1 ar
     6  6 5 ar
     7  7 6 1
     8  8 7 3
     9  9 5 1
    10 10 2 1
    11 11 10 3
    12 12 9 1
    13 13 9 1
    14 14 1 1
    15 15 3 1
@<TRIPOS>SUBSTRUCTURE
1     ****    1
@<TRIPOS>MOLECULE
ZINC00028115
31 32 1 0 0 
SMALL
USER_CHARGES


@<TRIPOS>ATOM
      1 C1          4.1360   -6.8600   -2.3320 C.ar    1     ****   -0.1670 
      2 C2          4.9150   -7.8310   -1.7070 C.ar    1     ****   -0.1470 
      3 C3          5.5410   -7.5540   -0.4890 C.ar    1     ****   -0.1150 
      4 C4          5.3950   -6.3020    0.1300 C.ar    1     ****   -0.0860 
      5 C5          4.6020   -5.3370   -0.5130 C.ar    1     ****   -0.1110 
      6 C6          3.9830   -5.6080   -1.7410 C.ar    1     ****   -0.1240 
      7 C7          4.4550   -3.9730    0.0210 C.2     1     ****    0.7080 
      8 O1          5.3810   -3.1950   -0.2040 O.2     1     ****   -0.6210 
      9 N1          3.2770   -3.6580    0.7010 N.am    1     ****   -0.4390 
     10 C8          2.2240   -4.6140    1.0630 C.3     1     ****    0.0750 
     11 C9          0.8560   -4.1060    0.6150 C.3     1     ****   -0.0820 
     12 C10         0.5900   -2.6970    1.1440 C.3     1     ****   -0.0720 
     13 C11         1.7270   -1.7470    0.7680 C.3     1     ****   -0.0840 
     14 C12         3.0800   -2.3000    1.2070 C.3     1     ****    0.0790 
     15 C13         6.0800   -6.0520    1.4430 C.2     1     ****    0.9120 
     16 O2          5.4130   -5.4520    2.3410 O.co2   1     ****   -0.8350 
     17 H1          3.6560   -7.0760   -3.2820 H       1     ****    0.1070 
     18 H2          5.0380   -8.8070   -2.1690 H       1     ****    0.1070 
     19 H3          6.1440   -8.3300   -0.0210 H       1     ****    0.1460 
     20 H4          3.3880   -4.8490   -2.2420 H       1     ****    0.1190 
     21 H5          2.4060   -5.6040    0.6400 H       1     ****    0.0560 
     22 H6          2.2510   -4.7240    2.1540 H       1     ****    0.0850 
     23 H7          0.8140   -4.0930   -0.4810 H       1     ****    0.0310 
     24 H8          0.0730   -4.7880    0.9630 H       1     ****    0.0330 
     25 H9         -0.3570   -2.3220    0.7410 H       1     ****    0.0180 
     26 H10         0.4870   -2.7290    2.2360 H       1     ****    0.0390 
     27 H11         1.7290   -1.6050   -0.3200 H       1     ****    0.0370 
     28 H12         1.5590   -0.7660    1.2240 H       1     ****    0.0290 
     29 H13         3.1400   -2.3470    2.3010 H       1     ****    0.0460 
     30 H14         3.8800   -1.6370    0.8630 H       1     ****    0.0680 
     31 O3          7.2680   -6.4850    1.5560 O.co2   1     ****   -0.8110 
@<TRIPOS>BOND
     1  2 1 ar
     2  3 2 ar
     3  4 3 ar
     4  5 4 ar
     5  6 1 ar
     6  6 5 ar
     7  7 5 1
     8  8 7 2
     9  9 7 1
    10 10 9 1
    11 11 10 1
    12 12 11 1
    13 13 12 1
    14 14 9 1
    15 14 13 1
    16 15 4 1
    17 16 15 1
    18 17 1 1
    19 18 2 1
    20 19 3 1
    21 20 6 1
    22 21 10 1
    23 22 10 1
    24 23 11 1
    25 24 11 1
    26 25 12 1
    27 26 12 1
    28 27 13 1
    29 28 13 1
    30 29 14 1
    31 30 14 1
    32 31 15 2
@<TRIPOS>SUBSTRUCTURE
1     ****    1
@<TRIPOS>MOLECULE
ZINC00028269
29 31 1 0 0 
SMALL
USER_CHARGES


@<TRIPOS>ATOM
      1 C1          4.5020   -7.4680   -0.6570 C.ar    1     ****   -0.0750 
      2 C2          5.0130   -8.7600   -0.4840 C.ar    1     ****   -0.2020 
      3 C3          5.6600   -9.1260    0.6990 C.ar    1     ****    0.1660 
      4 C4          5.7740   -8.1740    1.7150 C.ar    1     ****   -0.2040 
      5 C5          5.2650   -6.8810    1.5460 C.ar    1     ****   -0.0420 
      6 C6          4.6230   -6.5080    0.3570 C.ar    1     ****   -0.1640 
      7 C7          4.1010   -5.1430    0.2140 C.2     1     ****    0.4910 
      8 N1          3.4560   -4.6680   -0.9090 N.pl3   1     ****   -0.2810 
      9 C8          3.1070   -3.3590   -0.6980 C.ar    1     ****   -0.1080 
     10 C9          2.4460   -2.4240   -1.4910 C.ar    1     ****   -0.1010 
     11 C10         2.2570   -1.1510   -0.9370 C.ar    1     ****   -0.1630 
     12 C11         2.7120   -0.8250    0.3490 C.ar    1     ****    0.1110 
     13 C12         3.3680   -1.8000    1.1200 C.ar    1     ****   -0.1420 
     14 C13         3.5670   -3.0830    0.5800 C.ar    1     ****    0.1090 
     15 N2          4.1740   -4.1870    1.1260 N.2     1     ****   -0.5830 
     16 N3          2.4910    0.4430    0.8700 N.pl3   1     ****   -0.8100 
     17 N4          6.1470  -10.4110    0.8740 N.pl3   1     ****   -0.8270 
     18 H1          3.2660   -5.1900   -1.7530 H       1     ****    0.3020 
     19 H2          2.8470    0.6900    1.7830 H       1     ****    0.3820 
     20 H3          2.0490    1.1580    0.3070 H       1     ****    0.3800 
     21 H4          6.6460  -10.6590    1.7170 H       1     ****    0.3990 
     22 H5          6.0940  -11.0850    0.1220 H       1     ****    0.3980 
     23 H6          4.0120   -7.2400   -1.5990 H       1     ****    0.1220 
     24 H7          4.8990   -9.4820   -1.2900 H       1     ****    0.1340 
     25 H8          6.2630   -8.4280    2.6530 H       1     ****    0.1370 
     26 H9          5.3790   -6.1700    2.3620 H       1     ****    0.1610 
     27 H10         2.0910   -2.6630   -2.4870 H       1     ****    0.1330 
     28 H11         1.7400   -0.4000   -1.5320 H       1     ****    0.1320 
     29 H12         3.7210   -1.5740    2.1210 H       1     ****    0.1480 
@<TRIPOS>BOND
     1  2 1 ar
     2  3 2 ar
     3  4 3 ar
     4  5 4 ar
     5  6 1 ar
     6  6 5 ar
     7  7 6 1
     8  8 7 1
     9  9 8 1
    10 10 9 ar
    11 11 10 ar
    12 12 11 ar
    13 13 12 ar
    14 14 9 ar
    15 14 13 ar
    16 15 7 2
    17 15 14 1
    18 16 12 1
    19 17 3 1
    20 18 8 1
    21 19 16 1
    22 20 16 1
    23 21 17 1
    24 22 17 1
    25 23 1 1
    26 24 2 1
    27 25 4 1
    28 26 5 1
    29 27 10 1
    30 28 11 1
    31 29 13 1
@<TRIPOS>SUBSTRUCTURE
1     ****    1
@<TRIPOS>MOLECULE
ZINC00000052
35 38 1 0 0 
SMALL
USER_CHARGES


@<TRIPOS>ATOM
      1 C1         -0.7080    8.4250    6.8800 C.3     1     ****    0.1170 
      2 O1         -0.1940    7.3050    6.1700 O.3     1     ****   -0.3250 
      3 C2          1.1060    6.9250    6.4210 C.ar    1     ****    0.1340 
      4 C3          1.9320    7.5830    7.3300 C.ar    1     ****   -0.2210 
      5 C4          3.2260    7.1350    7.5190 C.ar    1     ****   -0.1090 
      6 C5          3.6980    6.0320    6.8060 C.ar    1     ****   -0.1430 
      7 C6          2.9120    5.3120    5.8680 C.ar    1     ****    0.0250 
      8 C7          1.5890    5.7990    5.6920 C.ar    1     ****   -0.0510 
      9 C8          0.7580    5.1390    4.7860 C.ar    1     ****   -0.1040 
     10 C9          1.2140    4.0400    4.0520 C.ar    1     ****   -0.0750 
     11 C10         2.5270    3.5060    4.1440 C.ar    1     ****   -0.0080 
     12 C11         3.3800    4.1480    5.1050 C.ar    1     ****   -0.0100 
     13 C12         4.6680    3.5750    5.2470 C.ar    1     ****    0.0200 
     14 C13         5.1200    2.4950    4.5190 C.ar    1     ****    0.0570 
     15 C14         4.3430    1.8920    3.5730 C.ar    1     ****   -0.0890 
     16 C15         3.0530    2.3940    3.3670 C.ar    1     ****   -0.0840 
     17 C16         2.3030    1.7270    2.2550 C.2     1     ****    0.9040 
     18 O2          2.2170    2.3770    1.1690 O.co2   1     ****   -0.7930 
     19 O3          6.3900    2.1160    4.8270 O.3     1     ****   -0.3400 
     20 C17         6.7160    3.0670    5.8460 C.3     1     ****    0.3230 
     21 O4          5.6450    3.9840    6.1160 O.3     1     ****   -0.3550 
     22 N1          0.1850    3.4340    3.2330 N.2     1     ****    0.3250 
     23 O5         -0.3520    2.4120    3.6790 O.2     1     ****   -0.1860 
     24 O6         -0.1220    4.0240    2.1890 O.3     1     ****   -0.1960 
     25 H1         -1.7420    8.5780    6.5560 H       1     ****    0.0620 
     26 H2         -0.7230    8.2370    7.9580 H       1     ****    0.0280 
     27 H3         -0.1480    9.3350    6.6410 H       1     ****    0.0290 
     28 H4          1.6020    8.4430    7.9020 H       1     ****    0.1280 
     29 H5          3.8800    7.6430    8.2230 H       1     ****    0.1220 
     30 H6          4.7270    5.7620    7.0150 H       1     ****    0.1570 
     31 H7         -0.2710    5.4710    4.6470 H       1     ****    0.1610 
     32 H8          4.7250    1.0580    2.9920 H       1     ****    0.1740 
     33 H9          6.9610    2.5290    6.7690 H       1     ****    0.0540 
     34 H10         7.5970    3.6380    5.5300 H       1     ****    0.0530 
     35 O7          1.8580    0.5640    2.4910 O.co2   1     ****   -0.7850 
@<TRIPOS>BOND
     1  2 1 1
     2  3 2 1
     3  4 3 ar
     4  5 4 ar
     5  6 5 ar
     6  7 6 ar
     7  8 3 ar
     8  8 7 ar
     9  9 8 ar
    10 10 9 ar
    11 11 10 ar
    12 12 7 ar
    13 12 11 ar
    14 13 12 ar
    15 14 13 ar
    16 15 14 ar
    17 16 11 ar
    18 16 15 ar
    19 17 16 1
    20 18 17 1
    21 19 14 1
    22 20 19 1
    23 21 13 1
    24 21 20 1
    25 22 10 1
    26 23 22 2
    27 24 22 1
    28 25 1 1
    29 26 1 1
    30 27 1 1
    31 28 4 1
    32 29 5 1
    33 30 6 1
    34 31 9 1
    35 32 15 1
    36 33 20 1
    37 34 20 1
    38 35 17 2
@<TRIPOS>SUBSTRUCTURE
1     ****    1
@<TRIPOS>MOLECULE
ZINC00000053
20 20 1 0 0 
SMALL
USER_CHARGES


@<TRIPOS>ATOM
      1 C1          7.6190   -2.2860    1.6780 C.3     1     ****   -0.1510 
      2 C2          6.7460   -2.9310    2.7130 C.2     1     ****    0.7040 
      3 O1          6.3450   -2.3680    3.7230 O.2     1     ****   -0.5570 
      4 O2          6.4920   -4.2420    2.3240 O.3     1     ****   -0.3850 
      5 C3          5.6590   -4.9390    3.2090 C.ar    1     ****    0.1410 
      6 C4          6.2290   -5.4410    4.3860 C.ar    1     ****   -0.1610 
      7 C5          5.4500   -6.1900    5.2630 C.ar    1     ****   -0.1460 
      8 C6          4.1160   -6.4480    4.9560 C.ar    1     ****   -0.1690 
      9 C7          3.5590   -5.9610    3.7690 C.ar    1     ****   -0.0960 
     10 C8          4.3220   -5.1990    2.8680 C.ar    1     ****   -0.1320 
     11 C9          3.6900   -4.7050    1.5920 C.2     1     ****    0.9220 
     12 O3          4.1310   -3.6230    1.0940 O.co2   1     ****   -0.8470 
     13 H1          7.8180   -1.2500    1.9670 H       1     ****    0.0380 
     14 H2          8.5710   -2.8180    1.6120 H       1     ****    0.0480 
     15 H3          7.1090   -2.2840    0.7110 H       1     ****    0.1250 
     16 H4          7.2730   -5.2510    4.6180 H       1     ****    0.1210 
     17 H5          5.8810   -6.5760    6.1810 H       1     ****    0.1040 
     18 H6          3.5060   -7.0330    5.6370 H       1     ****    0.1060 
     19 H7          2.5160   -6.1830    3.5550 H       1     ****    0.1500 
     20 O4          2.7470   -5.4080    1.1110 O.co2   1     ****   -0.8170 
@<TRIPOS>BOND
     1  2 1 1
     2  3 2 2
     3  4 2 1
     4  5 4 1
     5  6 5 ar
     6  7 6 ar
     7  8 7 ar
     8  9 8 ar
     9 10 5 ar
    10 10 9 ar
    11 11 10 1
    12 12 11 1
    13 13 1 1
    14 14 1 1
    15 15 1 1
    16 16 6 1
    17 17 7 1
    18 18 8 1
    19 19 9 1
    20 20 11 2
@<TRIPOS>SUBSTRUCTURE
1     ****    1
@<TRIPOS>MOLECULE
ZINC00000103
44 48 1 0 0 
SMALL
USER_CHARGES


@<TRIPOS>ATOM
      1 C1          4.6660    0.5450    5.1770 C.3     1     ****    0.0810 
      2 C2          5.9760    1.5640    3.2830 C.3     1     ****    0.1150 
      3 C3          5.8200    2.9780    3.8210 C.3     1     ****   -0.0550 
      4 C4          4.4470    3.5630    3.6090 C.ar    1     ****   -0.0770 
      5 C5          4.2730    4.9310    3.8230 C.ar    1     ****   -0.1160 
      6 C6          3.0120    5.4450    3.6610 C.ar    1     ****    0.1060 
      7 C7          1.9400    4.6610    3.2780 C.ar    1     ****    0.0560 
      8 C8          2.0250    3.2770    3.0210 C.ar    1     ****    0.0310 
      9 C9          3.3330    2.7470    3.2560 C.ar    1     ****   -0.1360 
     10 C10         3.5500    1.2660    2.9950 C.3     1     ****    0.1950 
     11 C11         2.3200    0.4620    3.4340 C.3     1     ****   -0.0380 
     12 C12         1.0770    1.0120    2.7660 C.ar    1     ****   -0.1060 
     13 C13         0.9320    2.4070    2.5750 C.ar    1     ****   -0.1110 
     14 C14        -0.3100    2.7770    1.9520 C.ar    1     ****    0.1580 
     15 C15        -1.3350    1.8570    1.6300 C.ar    1     ****    0.1260 
     16 C16        -1.1410    0.5090    1.8940 C.ar    1     ****   -0.1690 
     17 C17         0.0600    0.0900    2.4490 C.ar    1     ****   -0.1040 
     18 O1         -2.4630    2.3840    1.0530 O.3     1     ****   -0.2910 
     19 C18        -3.5130    1.4820    0.7260 C.3     1     ****    0.1050 
     20 O2         -0.5670    4.0640    1.5340 O.3     1     ****   -0.4480 
     21 O3          0.7950    5.4100    3.2420 O.3     1     ****   -0.3210 
     22 C19         1.2690    6.7180    3.6020 C.3     1     ****    0.3210 
     23 O4          2.6790    6.7490    3.8690 O.3     1     ****   -0.3140 
     24 H1          0.2400    4.5950    1.6040 H       1     ****    0.4280 
     25 H2          5.6620    0.3400    5.5810 H       1     ****    0.0970 
     26 H3          4.2490    1.4530    5.6170 H       1     ****    0.1150 
     27 H4          4.0260   -0.3200    5.3680 H       1     ****    0.1020 
     28 H5          6.8820    1.0830    3.6670 H       1     ****    0.1000 
     29 H6          6.0250    1.5520    2.1870 H       1     ****    0.1060 
     30 H7          6.0370    2.9910    4.8970 H       1     ****    0.0810 
     31 H8          6.5700    3.6150    3.3360 H       1     ****    0.1070 
     32 H9          5.0990    5.5680    4.1210 H       1     ****    0.1770 
     33 H10         3.6630    1.1190    1.9030 H       1     ****    0.1110 
     34 H11         2.4650   -0.5930    3.1710 H       1     ****    0.0620 
     35 H12         2.1440    0.5220    4.5140 H       1     ****    0.0780 
     36 H13        -1.8910   -0.2420    1.6710 H       1     ****    0.1590 
     37 H14         0.2020   -0.9700    2.6480 H       1     ****    0.1420 
     38 H15        -4.3290    2.0650    0.2870 H       1     ****    0.0860 
     39 H16        -3.1870    0.7520   -0.0230 H       1     ****    0.0390 
     40 H17        -3.9020    0.9870    1.6210 H       1     ****    0.0420 
     41 H18         1.0490    7.4100    2.7820 H       1     ****    0.0970 
     42 H19         0.7330    7.0530    4.4970 H       1     ****    0.0980 
     43 N1          4.8010    0.7080    3.6730 N.4     1     ****   -0.6800 
     44 H20         4.9830   -0.2580    3.3500 H       1     ****    0.4480 
@<TRIPOS>BOND
     1  3 2 1
     2  4 3 1
     3  5 4 ar
     4  6 5 ar
     5  7 6 ar
     6  8 7 ar
     7  9 4 ar
     8  9 8 ar
     9 10 9 1
    10 11 10 1
    11 12 11 1
    12 13 8 1
    13 13 12 ar
    14 14 13 ar
    15 15 14 ar
    16 16 15 ar
    17 17 12 ar
    18 17 16 ar
    19 18 15 1
    20 19 18 1
    21 20 14 1
    22 21 7 1
    23 22 21 1
    24 23 6 1
    25 23 22 1
    26 24 20 1
    27 25 1 1
    28 26 1 1
    29 27 1 1
    30 28 2 1
    31 29 2 1
    32 30 3 1
    33 31 3 1
    34 32 5 1
    35 33 10 1
    36 34 11 1
    37 35 11 1
    38 36 16 1
    39 37 17 1
    40 38 19 1
    41 39 19 1
    42 40 19 1
    43 41 22 1
    44 42 22 1
    45 43 1 1
    46 43 2 1
    47 43 10 1
    48 44 43 1
@<TRIPOS>SUBSTRUCTURE
1     ****    1
@<TRIPOS>MOLECULE
ZINC00000204
20 20 1 0 0 
SMALL
USER_CHARGES


@<TRIPOS>ATOM
      1 C1          5.4600   -9.5660   -1.4840 C.3     1     ****   -0.0730 
      2 C2          4.2740   -8.7350   -1.1230 C.2     1     ****    0.1830 
      3 C3          3.2250   -9.1830   -0.4260 C.2     1     ****   -0.2880 
      4 C4          2.1370   -8.2930   -0.1300 C.2     1     ****    0.2730 
      5 O1          1.1480   -8.8730    0.6310 O.3     1     ****   -0.4730 
      6 C5          2.1490   -7.0230   -0.5700 C.2     1     ****   -0.4210 
      7 C6          3.3150   -6.5200   -1.3380 C.2     1     ****    0.7560 
      8 O2          3.3550   -5.3640   -1.7480 O.2     1     ****   -0.5560 
      9 O3          4.3360   -7.3990   -1.5820 O.3     1     ****   -0.3320 
     10 C7          1.0160   -6.1130   -0.2580 C.2     1     ****    0.5900 
     11 O4          1.1780   -5.1590    0.4990 O.2     1     ****   -0.4920 
     12 C8         -0.3090   -6.3870   -0.9210 C.3     1     ****   -0.2100 
     13 H1          6.3700   -9.1290   -1.0610 H       1     ****    0.0790 
     14 H2          5.3720  -10.5910   -1.1110 H       1     ****    0.0640 
     15 H3          5.5720   -9.6110   -2.5720 H       1     ****    0.0780 
     16 H4          3.1750  -10.2080   -0.0720 H       1     ****    0.1770 
     17 H5          0.4980   -8.2000    0.8920 H       1     ****    0.4380 
     18 H6         -0.6210   -5.4980   -1.4750 H       1     ****    0.0870 
     19 H7         -0.2350   -7.2200   -1.6260 H       1     ****    0.0550 
     20 H8         -1.0510   -6.6340   -0.1580 H       1     ****    0.0640 
@<TRIPOS>BOND
     1  2 1 1
     2  3 2 2
     3  4 3 1
     4  5 4 1
     5  6 4 2
     6  7 6 1
     7  8 7 2
     8  9 2 1
     9  9 7 1
    10 10 6 1
    11 11 10 2
    12 12 10 1
    13 13 1 1
    14 14 1 1
    15 15 1 1
    16 16 3 1
    17 17 5 1
    18 18 12 1
    19 19 12 1
    20 20 12 1
@<TRIPOS>SUBSTRUCTURE
1     ****    1
@<TRIPOS>MOLECULE
ZINC00000226
21 21 1 0 0 
SMALL
USER_CHARGES


@<TRIPOS>ATOM
      1 C1          4.5010   -9.3620   -1.5700 C.3     1     ****   -0.1800 
      2 C2          3.5420   -8.5820   -0.7070 C.2     1     ****    0.6560 
      3 O1          3.1820   -9.0150    0.3830 O.2     1     ****   -0.6090 
      4 N1          3.1730   -7.3910   -1.3160 N.am    1     ****   -0.4600 
      5 C3          2.2940   -6.4030   -0.8130 C.ar    1     ****    0.0190 
      6 C4          1.6420   -6.4840    0.4180 C.ar    1     ****   -0.1720 
      7 C5          0.7870   -5.4560    0.8370 C.ar    1     ****   -0.0920 
      8 C6          0.5620   -4.3250    0.0370 C.ar    1     ****   -0.1380 
      9 C7          1.2200   -4.2520   -1.1970 C.ar    1     ****   -0.0880 
     10 C8          2.0750   -5.2780   -1.6160 C.ar    1     ****   -0.2070 
     11 C9         -0.3600   -3.2210    0.4930 C.2     1     ****    0.9090 
     12 O2         -0.5110   -2.2300   -0.2880 O.co2   1     ****   -0.8350 
     13 H1          3.5740   -7.1940   -2.2300 H       1     ****    0.3010 
     14 H2          4.7760  -10.2950   -1.0690 H       1     ****    0.0680 
     15 H3          4.0290   -9.6010   -2.5280 H       1     ****    0.0500 
     16 H4          5.4070   -8.7740   -1.7450 H       1     ****    0.0500 
     17 H5          1.7690   -7.3280    1.0860 H       1     ****    0.1490 
     18 H6          0.2960   -5.5540    1.8030 H       1     ****    0.1540 
     19 H7          1.0780   -3.3950   -1.8520 H       1     ****    0.1530 
     20 H8          2.5660   -5.1810   -2.5820 H       1     ****    0.1010 
     21 O3         -0.9200   -3.3600    1.6250 O.co2   1     ****   -0.8290 
@<TRIPOS>BOND
     1  2 1 1
     2  3 2 2
     3  4 2 1
     4  5 4 1
     5  6 5 ar
     6  7 6 ar
     7  8 7 ar
     8  9 8 ar
     9 10 5 ar
    10 10 9 ar
    11 11 8 1
    12 12 11 1
    13 13 4 1
    14 14 1 1
    15 15 1 1
    16 16 1 1
    17 17 6 1
    18 18 7 1
    19 19 9 1
    20 20 10 1
    21 21 11 2
@<TRIPOS>SUBSTRUCTURE
1     ****    1
@<TRIPOS>MOLECULE
ZINC00000252
45 48 1 0 0 
SMALL
USER_CHARGES


@<TRIPOS>ATOM
      1 C1          5.4090    2.5890    3.1040 C.3     1     ****   -0.0900 
      2 C2          3.9200    2.8270    3.4680 C.3     1     ****   -0.0500 
      3 C3          3.1140    2.9590    2.1630 C.3     1     ****   -0.0600 
      4 C4          3.0470    1.6270    1.3850 C.3     1     ****   -0.0720 
      5 C5          2.5710    0.4290    2.2620 C.3     1     ****   -0.0090 
      6 C6          2.6460   -0.9070    1.5270 C.ar    1     ****   -0.0990 
      7 C7          2.4070   -0.9970    0.1420 C.ar    1     ****   -0.0910 
      8 C8          2.4200   -2.2250   -0.5230 C.ar    1     ****   -0.2150 
      9 C9          2.6560   -3.3890    0.1950 C.ar    1     ****    0.1220 
     10 C10         2.8690   -3.3390    1.5670 C.ar    1     ****   -0.1620 
     11 C11         2.8510   -2.1080    2.2460 C.ar    1     ****   -0.0380 
     12 C12         3.1050   -2.1280    3.7340 C.3     1     ****   -0.0370 
     13 C13         2.8450   -0.7950    4.4300 C.3     1     ****   -0.0740 
     14 C14         3.3990    0.3500    3.5710 C.3     1     ****   -0.0490 
     15 C15         3.2850    1.6990    4.2850 C.3     1     ****   -0.0620 
     16 C16         3.8970    1.8600    5.6830 C.3     1     ****   -0.1030 
     17 C17         4.2110    3.3830    5.7780 C.3     1     ****    0.1010 
     18 C18         3.8110    4.0200    4.4300 C.3     1     ****    0.1580 
     19 O1          2.4590    4.4650    4.4990 O.3     1     ****   -0.5960 
     20 O2          3.4660    3.9780    6.8300 O.3     1     ****   -0.6090 
     21 O3          2.6800   -4.6080   -0.4210 O.3     1     ****   -0.5000 
     22 H1          2.3670    4.9540    5.3370 H       1     ****    0.4230 
     23 H2          3.7070    3.5200    7.6540 H       1     ****    0.4120 
     24 H3          2.5150   -4.4790   -1.3700 H       1     ****    0.4180 
     25 H4          6.0340    2.4250    3.9880 H       1     ****    0.0310 
     26 H5          5.5650    1.7300    2.4470 H       1     ****    0.0450 
     27 H6          5.8140    3.4650    2.5840 H       1     ****    0.0370 
     28 H7          2.0840    3.2710    2.3750 H       1     ****    0.0660 
     29 H8          3.5460    3.7360    1.5210 H       1     ****    0.0440 
     30 H9          2.3540    1.7800    0.5490 H       1     ****    0.0390 
     31 H10         4.0220    1.4040    0.9360 H       1     ****    0.0440 
     32 H11         1.5140    0.6530    2.4970 H       1     ****    0.0590 
     33 H12         2.1960   -0.1120   -0.4500 H       1     ****    0.1340 
     34 H13         2.2400   -2.2550   -1.5940 H       1     ****    0.1320 
     35 H14         3.0480   -4.2610    2.1160 H       1     ****    0.1480 
     36 H15         2.4850   -2.9000    4.2070 H       1     ****    0.0530 
     37 H16         4.1550   -2.4090    3.8900 H       1     ****    0.0520 
     38 H17         1.7660   -0.6610    4.5860 H       1     ****    0.0470 
     39 H18         3.3100   -0.8160    5.4220 H       1     ****    0.0410 
     40 H19         4.4530    0.0920    3.3780 H       1     ****    0.0590 
     41 H20         2.2000    1.8450    4.4470 H       1     ****    0.0680 
     42 H21         3.2160    1.5200    6.4690 H       1     ****    0.0500 
     43 H22         4.8260    1.2840    5.7630 H       1     ****    0.0480 
     44 H23         5.2860    3.4920    5.9870 H       1     ****    0.0400 
     45 H24         4.4430    4.8600    4.1090 H       1     ****    0.0440 
@<TRIPOS>BOND
     1  2 1 1
     2  3 2 1
     3  4 3 1
     4  5 4 1
     5  6 5 1
     6  7 6 ar
     7  8 7 ar
     8  9 8 ar
     9 10 9 ar
    10 11 6 ar
    11 11 10 ar
    12 12 11 1
    13 13 12 1
    14 14 5 1
    15 14 13 1
    16 15 2 1
    17 15 14 1
    18 16 15 1
    19 17 16 1
    20 18 2 1
    21 18 17 1
    22 19 18 1
    23 20 17 1
    24 21 9 1
    25 22 19 1
    26 23 20 1
    27 24 21 1
    28 25 1 1
    29 26 1 1
    30 27 1 1
    31 28 3 1
    32 29 3 1
    33 30 4 1
    34 31 4 1
    35 32 5 1
    36 33 7 1
    37 34 8 1
    38 35 10 1
    39 36 12 1
    40 37 12 1
    41 38 13 1
    42 39 13 1
    43 40 14 1
    44 41 15 1
    45 42 16 1
    46 43 16 1
    47 44 17 1
    48 45 18 1
@<TRIPOS>SUBSTRUCTURE
1     ****    1
@<TRIPOS>MOLECULE
ZINC00000296
31 32 1 0 0 
SMALL
USER_CHARGES


@<TRIPOS>ATOM
      1 C1         -0.2820    7.4570    6.9370 C.3     1     ****   -0.1040 
      2 C2          0.6510    7.9620    8.0340 C.3     1     ****   -0.0660 
      3 C3          1.1680    6.8340    8.9490 C.3     1     ****   -0.1320 
      4 C4          2.2720    6.0370    8.3070 C.2     1     ****    0.7010 
      5 O1          2.3380    5.6920    7.1370 O.2     1     ****   -0.5880 
      6 N1          3.1760    5.7180    9.2950 N.am    1     ****   -0.6150 
      7 C5          2.9620    6.3390   10.5050 C.2     1     ****    0.7010 
      8 O2          3.6260    6.2010   11.5210 O.2     1     ****   -0.5770 
      9 C6          1.7830    7.2690   10.3250 C.3     1     ****   -0.0650 
     10 C7          0.7590    7.0020   11.4470 C.3     1     ****   -0.0880 
     11 C8          2.2400    8.7500   10.3320 C.ar    1     ****   -0.0730 
     12 C9          3.4280    9.1280    9.6720 C.ar    1     ****   -0.1190 
     13 C10         3.8620   10.4570    9.6510 C.ar    1     ****   -0.1240 
     14 C11         3.1160   11.4440   10.2850 C.ar    1     ****   -0.1210 
     15 C12         1.9350   11.1020   10.9350 C.ar    1     ****   -0.1290 
     16 C13         1.5010    9.7720   10.9570 C.ar    1     ****   -0.1180 
     17 H1          3.9680    5.1070    9.1310 H       1     ****    0.3450 
     18 H2         -0.6590    8.3010    6.3510 H       1     ****    0.0400 
     19 H3          0.2280    6.7770    6.2490 H       1     ****    0.0630 
     20 H4         -1.1430    6.9330    7.3650 H       1     ****    0.0320 
     21 H5          0.0830    8.6880    8.6270 H       1     ****    0.0560 
     22 H6          1.4840    8.4940    7.5600 H       1     ****    0.0560 
     23 H7          0.2890    6.2010    9.1590 H       1     ****    0.0910 
     24 H8          1.1330    7.3310   12.4240 H       1     ****    0.0670 
     25 H9         -0.2010    7.4950   11.2560 H       1     ****    0.0470 
     26 H10         0.5540    5.9270   11.5390 H       1     ****    0.0470 
     27 H11         4.0390    8.3930    9.1540 H       1     ****    0.1360 
     28 H12         4.7820   10.7180    9.1360 H       1     ****    0.1370 
     29 H13         3.4500   12.4770   10.2680 H       1     ****    0.1350 
     30 H14         1.3450   11.8700   11.4270 H       1     ****    0.1350 
     31 H15         0.5660    9.5640   11.4690 H       1     ****    0.1350 
@<TRIPOS>BOND
     1  2 1 1
     2  3 2 1
     3  4 3 1
     4  5 4 2
     5  6 4 1
     6  7 6 1
     7  8 7 2
     8  9 3 1
     9  9 7 1
    10 10 9 1
    11 11 9 1
    12 12 11 ar
    13 13 12 ar
    14 14 13 ar
    15 15 14 ar
    16 16 11 ar
    17 16 15 ar
    18 17 6 1
    19 18 1 1
    20 19 1 1
    21 20 1 1
    22 21 2 1
    23 22 2 1
    24 23 3 1
    25 24 10 1
    26 25 10 1
    27 26 10 1
    28 27 12 1
    29 28 13 1
    30 29 14 1
    31 30 15 1
    32 31 16 1
@<TRIPOS>SUBSTRUCTURE
1     ****    1
@<TRIPOS>MOLECULE
ZINC00000323
30 31 1 0 0 
SMALL
USER_CHARGES


@<TRIPOS>ATOM
      1 C1          6.1890   -7.7870    2.1490 C.3     1     ****   -0.0620 
      2 C2          6.4280   -6.2860    1.9410 C.3     1     ****   -0.1790 
      3 C3          5.1330   -5.5360    1.7020 C.ar    1     ****    0.0270 
      4 C4          4.0710   -5.5720    2.6150 C.ar    1     ****   -0.1350 
      5 C5          2.8880   -4.8640    2.3720 C.ar    1     ****   -0.1040 
      6 C6          2.7270   -4.0920    1.2100 C.ar    1     ****   -0.1230 
      7 C7          3.8010   -4.0620    0.3080 C.ar    1     ****    0.1240 
      8 C8          4.9840   -4.7660    0.5430 C.ar    1     ****   -0.1830 
      9 F1          3.7040   -3.3540   -0.8290 F       1     ****   -0.1630 
     10 C9          1.4810   -3.3470    0.9610 C.ar    1     ****    0.0000 
     11 C10         0.2280   -3.9790    1.0510 C.ar    1     ****   -0.1270 
     12 C11        -0.9560   -3.2730    0.8190 C.ar    1     ****   -0.1380 
     13 C12        -0.9090   -1.9210    0.4920 C.ar    1     ****   -0.1470 
     14 C13         0.3200   -1.2740    0.3980 C.ar    1     ****   -0.1360 
     15 C14         1.5030   -1.9800    0.6310 C.ar    1     ****   -0.1150 
     16 C15         7.1350   -5.6520    3.1480 C.2     1     ****    0.9250 
     17 O1          7.0160   -6.2460    4.2570 O.co2   1     ****   -0.8360 
     18 H1          5.6970   -8.2240    1.2730 H       1     ****   -0.0070 
     19 H2          7.1410   -8.3090    2.2970 H       1     ****    0.0260 
     20 H3          5.5580   -8.0020    3.0190 H       1     ****    0.0480 
     21 H4          7.0640   -6.2290    1.0410 H       1     ****    0.0470 
     22 H5          4.1550   -6.1460    3.5350 H       1     ****    0.1770 
     23 H6          2.0950   -4.9140    3.1150 H       1     ****    0.1230 
     24 H7          5.7850   -4.7050   -0.1890 H       1     ****    0.1420 
     25 H8          0.1610   -5.0370    1.2970 H       1     ****    0.1340 
     26 H9         -1.9130   -3.7820    0.8910 H       1     ****    0.1190 
     27 H10        -1.8290   -1.3720    0.3120 H       1     ****    0.1170 
     28 H11         0.3610   -0.2180    0.1460 H       1     ****    0.1210 
     29 H12         2.4490   -1.4470    0.5580 H       1     ****    0.1440 
     30 O2          7.7730   -4.5920    2.8790 O.co2   1     ****   -0.8190 
@<TRIPOS>BOND
     1  2 1 1
     2  3 2 1
     3  4 3 ar
     4  5 4 ar
     5  6 5 ar
     6  7 6 ar
     7  8 3 ar
     8  8 7 ar
     9  9 7 1
    10 10 6 1
    11 11 10 ar
    12 12 11 ar
    13 13 12 ar
    14 14 13 ar
    15 15 10 ar
    16 15 14 ar
    17 16 2 1
    18 17 16 1
    19 18 1 1
    20 19 1 1
    21 20 1 1
    22 21 2 1
    23 22 4 1
    24 23 5 1
    25 24 8 1
    26 25 11 1
    27 26 12 1
    28 27 13 1
    29 28 14 1
    30 29 15 1
    31 30 16 2
@<TRIPOS>SUBSTRUCTURE
1     ****    1
@<TRIPOS>MOLECULE
ZINC00000341
42 45 1 0 0 
SMALL
USER_CHARGES


@<TRIPOS>ATOM
      1 C1          4.1180   -5.3220   -0.8310 C.3     1     ****    0.0830 
      2 C2          4.0600   -7.7450   -0.1610 C.3     1     ****    0.1140 
      3 C3          3.4790   -8.7390    0.8620 C.3     1     ****   -0.0450 
      4 C4          4.0670   -8.4240    2.2030 C.ar    1     ****   -0.0750 
      5 C5          4.4620   -9.3740    3.1470 C.ar    1     ****   -0.1490 
      6 C6          5.1750   -8.9740    4.2950 C.ar    1     ****    0.0890 
      7 C7          5.5320   -7.6220    4.4610 C.ar    1     ****    0.1650 
      8 C8          5.1410   -6.6850    3.5200 C.ar    1     ****   -0.0730 
      9 C9          4.3330   -7.0940    2.4580 C.ar    1     ****   -0.1530 
     10 C10         3.9010   -5.9450    1.6220 C.3     1     ****    0.1790 
     11 C11         5.1190   -5.0210    1.8380 C.3     1     ****   -0.0810 
     12 C12         5.4900   -5.2130    3.3620 C.3     1     ****    0.0790 
     13 C13         6.9640   -4.9320    3.5440 C.2     1     ****   -0.1290 
     14 C14         7.4600   -4.0230    4.3910 C.2     1     ****   -0.1920 
     15 C15         6.5590   -3.2070    5.2330 C.2     1     ****    0.5440 
     16 O1          7.0040   -2.3690    6.0090 O.2     1     ****   -0.4810 
     17 C16         5.1030   -3.4350    5.1080 C.2     1     ****   -0.1920 
     18 C17         4.6240   -4.3480    4.2530 C.2     1     ****   -0.1360 
     19 O2          6.2740   -7.2210    5.5360 O.3     1     ****   -0.4670 
     20 O3          5.6090   -9.8160    5.2880 O.3     1     ****   -0.3350 
     21 C18         5.2240  -11.1820    5.1880 C.3     1     ****    0.1160 
     22 H1          6.4510   -8.0110    6.0780 H       1     ****    0.4580 
     23 H2          3.7050   -5.5850   -1.8100 H       1     ****    0.0990 
     24 H3          3.7560   -4.3340   -0.5360 H       1     ****    0.1050 
     25 H4          5.2090   -5.3680   -0.8640 H       1     ****    0.1070 
     26 H5          3.6850   -7.9740   -1.1640 H       1     ****    0.0970 
     27 H6          5.1570   -7.7460   -0.1750 H       1     ****    0.1090 
     28 H7          2.3860   -8.6700    0.9060 H       1     ****    0.0810 
     29 H8          3.7480   -9.7580    0.5600 H       1     ****    0.1040 
     30 H9          4.2380  -10.4190    2.9560 H       1     ****    0.1620 
     31 H10         3.0040   -5.4110    1.9740 H       1     ****    0.1050 
     32 H11         5.9630   -5.3370    1.2080 H       1     ****    0.0720 
     33 H12         4.8940   -3.9750    1.5970 H       1     ****    0.0830 
     34 H13         7.6680   -5.5150    2.9520 H       1     ****    0.1380 
     35 H14         8.5270   -3.8600    4.4890 H       1     ****    0.1680 
     36 H15         4.4450   -2.8400    5.7300 H       1     ****    0.1670 
     37 H16         3.5450   -4.4770    4.2050 H       1     ****    0.1340 
     38 H17         5.6020  -11.7010    6.0740 H       1     ****    0.0920 
     39 H18         4.1340  -11.2880    5.1800 H       1     ****    0.0470 
     40 H19         5.6760  -11.6540    4.3090 H       1     ****    0.0440 
     41 N1          3.6000   -6.3330    0.1620 N.4     1     ****   -0.6750 
     42 H20         2.5750   -6.2990    0.0130 H       1     ****    0.4430 
@<TRIPOS>BOND
     1  3 2 1
     2  4 3 1
     3  5 4 ar
     4  6 5 ar
     5  7 6 ar
     6  8 7 ar
     7  9 4 ar
     8  9 8 ar
     9 10 9 1
    10 11 10 1
    11 12 8 1
    12 12 11 1
    13 13 12 1
    14 14 13 2
    15 15 14 1
    16 16 15 2
    17 17 15 1
    18 18 12 1
    19 18 17 2
    20 19 7 1
    21 20 6 1
    22 21 20 1
    23 22 19 1
    24 23 1 1
    25 24 1 1
    26 25 1 1
    27 26 2 1
    28 27 2 1
    29 28 3 1
    30 29 3 1
    31 30 5 1
    32 31 10 1
    33 32 11 1
    34 33 11 1
    35 34 13 1
    36 35 14 1
    37 36 17 1
    38 37 18 1
    39 38 21 1
    40 39 21 1
    41 40 21 1
    42 41 1 1
    43 41 2 1
    44 41 10 1
    45 42 41 1
@<TRIPOS>SUBSTRUCTURE
1     ****    1
@<TRIPOS>MOLECULE
ZINC00000453
30 31 1 0 0 
SMALL
USER_CHARGES


@<TRIPOS>ATOM
      1 C1          3.0220   -3.6180    0.4180 C.3     1     ****   -0.1070 
      2 C2          3.3790   -2.2290    0.9390 C.3     1     ****   -0.0580 
      3 C3          4.2580   -1.3530    0.0030 C.3     1     ****    0.0660 
      4 C4          3.3490   -0.8770   -1.1520 C.2     1     ****    0.6970 
      5 O1          2.8160   -1.5840   -1.9950 O.2     1     ****   -0.5770 
      6 N1          3.2510    0.4990   -1.0430 N.am    1     ****   -0.5170 
      7 C5          3.9800    0.9840    0.0260 C.2     1     ****    0.7830 
      8 O2          4.0980    2.1490    0.3830 O.2     1     ****   -0.6050 
      9 N2          4.5830   -0.1090    0.6490 N.am    1     ****   -0.5140 
     10 C6          2.4770    1.3190   -1.9510 C.3     1     ****    0.0950 
     11 C7          5.5340   -2.0540   -0.4620 C.ar    1     ****   -0.1130 
     12 C8          6.3990   -2.6270    0.4920 C.ar    1     ****   -0.1190 
     13 C9          7.5870   -3.2560    0.1110 C.ar    1     ****   -0.1300 
     14 C10         7.9450   -3.3150   -1.2310 C.ar    1     ****   -0.1160 
     15 C11         7.1180   -2.7380   -2.1900 C.ar    1     ****   -0.1270 
     16 C12         5.9280   -2.1080   -1.8100 C.ar    1     ****   -0.1060 
     17 H1          5.1870   -0.0180    1.4590 H       1     ****    0.3190 
     18 H2          2.4130   -4.1440    1.1610 H       1     ****    0.0400 
     19 H3          2.4390   -3.5710   -0.5050 H       1     ****    0.0640 
     20 H4          3.9120   -4.2270    0.2350 H       1     ****    0.0440 
     21 H5          2.4420   -1.7000    1.1600 H       1     ****    0.0590 
     22 H6          3.8780   -2.3480    1.9100 H       1     ****    0.0540 
     23 H7          1.4370    0.9800   -1.9290 H       1     ****    0.0480 
     24 H8          2.5340    2.3740   -1.6730 H       1     ****    0.0760 
     25 H9          2.8620    1.1760   -2.9650 H       1     ****    0.0470 
     26 H10         6.1570   -2.5860    1.5510 H       1     ****    0.1370 
     27 H11         8.2340   -3.6950    0.8660 H       1     ****    0.1370 
     28 H12         8.8680   -3.8020   -1.5290 H       1     ****    0.1370 
     29 H13         7.3980   -2.7730   -3.2390 H       1     ****    0.1390 
     30 H14         5.3260   -1.6610   -2.5950 H       1     ****    0.1490 
@<TRIPOS>BOND
     1  2 1 1
     2  3 2 1
     3  4 3 1
     4  5 4 2
     5  6 4 1
     6  7 6 1
     7  8 7 2
     8  9 3 1
     9  9 7 1
    10 10 6 1
    11 11 3 1
    12 12 11 ar
    13 13 12 ar
    14 14 13 ar
    15 15 14 ar
    16 16 11 ar
    17 16 15 ar
    18 17 9 1
    19 18 1 1
    20 19 1 1
    21 20 1 1
    22 21 2 1
    23 22 2 1
    24 23 10 1
    25 24 10 1
    26 25 10 1
    27 26 12 1
    28 27 13 1
    29 28 14 1
    30 29 15 1
    31 30 16 1
@<TRIPOS>SUBSTRUCTURE
1     ****    1
@<TRIPOS>MOLECULE
ZINC00000490
19 19 1 0 0 
SMALL
USER_CHARGES


@<TRIPOS>ATOM
      1 C1          0.6530   -0.6160    5.2160 C.3     1     ****    0.1280 
      2 O1          1.8060   -1.0760    5.9270 O.3     1     ****   -0.4310 
      3 C2          2.5390   -2.0280    5.2960 C.2     1     ****    0.6580 
      4 O2          2.2980   -2.5090    4.1990 O.2     1     ****   -0.5790 
      5 C3          3.7090   -2.4310    6.1240 C.ar    1     ****   -0.2310 
      6 C4          3.9410   -1.8470    7.3790 C.ar    1     ****   -0.0350 
      7 C5          5.0420   -2.2310    8.1500 C.ar    1     ****   -0.1890 
      8 C6          5.9230   -3.2000    7.6790 C.ar    1     ****   -0.0590 
      9 C7          5.7060   -3.7890    6.4360 C.ar    1     ****   -0.1840 
     10 C8          4.6070   -3.4080    5.6620 C.ar    1     ****    0.2060 
     11 O3          4.4790   -4.0430    4.4560 O.3     1     ****   -0.5000 
     12 H1          3.6880   -3.7080    4.0000 H       1     ****    0.4610 
     13 H2          0.1560    0.1420    5.8280 H       1     ****    0.0640 
     14 H3          0.9500   -0.1600    4.2660 H       1     ****    0.0490 
     15 H4         -0.0440   -1.4420    5.0470 H       1     ****    0.0480 
     16 H5          3.2790   -1.0860    7.7850 H       1     ****    0.1550 
     17 H6          5.2100   -1.7700    9.1200 H       1     ****    0.1410 
     18 H7          6.7780   -3.4970    8.2800 H       1     ****    0.1390 
     19 H8          6.3970   -4.5450    6.0720 H       1     ****    0.1570 
@<TRIPOS>BOND
     1  2 1 1
     2  3 2 1
     3  4 3 2
     4  5 3 1
     5  6 5 ar
     6  7 6 ar
     7  8 7 ar
     8  9 8 ar
     9 10 5 ar
    10 10 9 ar
    11 11 10 1
    12 12 11 1
    13 13 1 1
    14 14 1 1
    15 15 1 1
    16 16 6 1
    17 17 7 1
    18 18 8 1
    19 19 9 1
@<TRIPOS>SUBSTRUCTURE
1     ****    1
@<TRIPOS>MOLECULE
ZINC00000579
21 21 1 0 0 
SMALL
USER_CHARGES


@<TRIPOS>ATOM
      1 C1          5.4040  -10.8290   -0.8480 C.3     1     ****   -0.1420 
      2 S1          4.3260  -10.0450    0.3770 S.o     1     ****    0.3210 
      3 O1          5.2020   -9.5220    1.4760 O.3     1     ****   -0.4970 
      4 C2          3.8570   -8.6330   -0.6760 C.3     1     ****   -0.2100 
      5 C3          2.8450   -7.7290   -0.0040 C.2     1     ****    0.5110 
      6 O2          2.2520   -8.0360    1.0290 O.2     1     ****   -0.4990 
      7 C4          2.5360   -6.4190   -0.6400 C.ar    1     ****    0.3370 
      8 C5          3.0360   -6.0560   -1.8850 C.ar    1     ****   -0.2170 
      9 C6          2.6840   -4.8080   -2.3940 C.ar    1     ****   -0.1000 
     10 C7          1.8540   -3.9690   -1.6600 C.ar    1     ****   -0.2250 
     11 C8          1.4030   -4.4190   -0.4320 C.ar    1     ****    0.3920 
     12 N1          1.7220   -5.6210    0.0950 N.ar    1     ****   -0.6160 
     13 H1          5.8520  -11.7190   -0.3980 H       1     ****    0.0920 
     14 H2          4.8140  -11.1230   -1.7180 H       1     ****    0.0770 
     15 H3          6.1950  -10.1370   -1.1460 H       1     ****    0.0870 
     16 H4          4.7720   -8.0740   -0.8920 H       1     ****    0.1190 
     17 H5          3.4190   -9.0320   -1.5950 H       1     ****    0.1020 
     18 H6          3.6780   -6.7020   -2.4720 H       1     ****    0.1430 
     19 H7          3.0560   -4.4910   -3.3640 H       1     ****    0.1440 
     20 H8          1.5690   -2.9940   -2.0380 H       1     ****    0.1490 
     21 H9          0.7520   -3.8040    0.1820 H       1     ****    0.0310 
@<TRIPOS>BOND
     1  2 1 1
     2  3 2 1
     3  4 2 1
     4  5 4 1
     5  6 5 2
     6  7 5 1
     7  8 7 ar
     8  9 8 ar
     9 10 9 ar
    10 11 10 ar
    11 12 7 ar
    12 12 11 ar
    13 13 1 1
    14 14 1 1
    15 15 1 1
    16 16 4 1
    17 17 4 1
    18 18 8 1
    19 19 9 1
    20 20 10 1
    21 21 11 1
@<TRIPOS>SUBSTRUCTURE
1     ****    1
@<TRIPOS>MOLECULE
ZINC00000741
27 28 1 0 0 
SMALL
USER_CHARGES


@<TRIPOS>ATOM
      1 C1          5.9400   -4.8620    0.2500 C.3     1     ****   -0.1380 
      2 C2          4.4330   -5.0640    0.3960 C.3     1     ****    0.1280 
      3 C3          3.8710   -5.8190   -0.8190 C.3     1     ****   -0.0530 
      4 C4          2.4120   -6.1830   -0.6760 C.ar    1     ****   -0.1680 
      5 C5          2.0220   -7.2160    0.2070 C.ar    1     ****   -0.1080 
      6 C6          0.6760   -7.5620    0.3630 C.ar    1     ****   -0.1050 
      7 C7         -0.2550   -6.8620   -0.3750 C.ar    1     ****    0.0900 
      8 C8          0.1140   -5.8570   -1.2370 C.ar    1     ****    0.0740 
      9 C9          1.4340   -5.4940   -1.4110 C.ar    1     ****   -0.1550 
     10 O1         -0.9550   -5.2950   -1.8650 O.3     1     ****   -0.3240 
     11 C10        -2.0390   -6.0640   -1.3030 C.3     1     ****    0.3200 
     12 O2         -1.6010   -7.0580   -0.3530 O.3     1     ****   -0.3120 
     13 H1          2.7740   -3.8200    0.6510 H       1     ****    0.4740 
     14 H2          4.1660   -3.1920    1.2790 H       1     ****    0.4550 
     15 H3          6.4560   -5.8260    0.1900 H       1     ****    0.1040 
     16 H4          6.1830   -4.2910   -0.6530 H       1     ****    0.0710 
     17 H5          6.3460   -4.3200    1.1120 H       1     ****    0.0690 
     18 H6          4.2590   -5.6310    1.3240 H       1     ****    0.1110 
     19 H7          4.0210   -5.2310   -1.7350 H       1     ****    0.0800 
     20 H8          4.4360   -6.7480   -0.9710 H       1     ****    0.1080 
     21 H9          2.7730   -7.7580    0.7770 H       1     ****    0.1480 
     22 H10         0.3800   -8.3540    1.0400 H       1     ****    0.1800 
     23 H11         1.7000   -4.6980   -2.0990 H       1     ****    0.1530 
     24 H12        -2.7310   -5.3790   -0.8000 H       1     ****    0.0940 
     25 H13        -2.5710   -6.5680   -2.1180 H       1     ****    0.0970 
     26 N1          3.7870   -3.7370    0.4930 N.4     1     ****   -0.8460 
     27 H14         3.9210   -3.1780   -0.3600 H       1     ****    0.4520 
@<TRIPOS>BOND
     1  2 1 1
     2  3 2 1
     3  4 3 1
     4  5 4 ar
     5  6 5 ar
     6  7 6 ar
     7  8 7 ar
     8  9 4 ar
     9  9 8 ar
    10 10 8 1
    11 11 10 1
    12 12 7 1
    13 12 11 1
    14 15 1 1
    15 16 1 1
    16 17 1 1
    17 18 2 1
    18 19 3 1
    19 20 3 1
    20 21 5 1
    21 22 6 1
    22 23 9 1
    23 24 11 1
    24 25 11 1
    25 26 2 1
    26 26 13 1
    27 26 14 1
    28 27 26 1
@<TRIPOS>SUBSTRUCTURE
1     ****    1
@<TRIPOS>MOLECULE
ZINC00000764
27 28 1 0 0 
SMALL
USER_CHARGES


@<TRIPOS>ATOM
      1 C1          1.1600   -8.5330   -1.3160 C.3     1     ****    0.1880 
      2 N1          2.5240   -8.0670   -1.1040 N.pl3   1     ****   -0.7010 
      3 C2          3.5780   -9.0650   -1.2160 C.3     1     ****    0.1910 
      4 C3          2.8290   -6.7240   -0.9950 C.2     1     ****    0.8190 
      5 N2          3.9930   -6.1620   -0.8940 N.2     1     ****   -0.7290 
      6 C4          3.7720   -4.8130   -0.8010 C.2     1     ****    0.6810 
      7 O1          4.6200   -3.9450   -0.6530 O.2     1     ****   -0.5010 
      8 C5          2.2910   -4.5760   -0.9090 C.3     1     ****    0.0560 
      9 O2          1.7490   -5.8790   -0.9880 O.3     1     ****   -0.4460 
     10 C6          1.7300   -3.8220    0.2780 C.ar    1     ****   -0.0910 
     11 C7          1.5890   -4.4330    1.5330 C.ar    1     ****   -0.1020 
     12 C8          1.0850   -3.7170    2.6210 C.ar    1     ****   -0.1300 
     13 C9          0.7220   -2.3810    2.4690 C.ar    1     ****   -0.1180 
     14 C10         0.8640   -1.7590    1.2310 C.ar    1     ****   -0.1300 
     15 C11         1.3670   -2.4730    0.1420 C.ar    1     ****   -0.1050 
     16 H1          0.4940   -8.1380   -0.5420 H       1     ****    0.0720 
     17 H2          0.7970   -8.2040   -2.2960 H       1     ****    0.0370 
     18 H3          1.0890   -9.6250   -1.2810 H       1     ****    0.0580 
     19 H4          4.4670   -8.7730   -0.6470 H       1     ****    0.0840 
     20 H5          3.2530  -10.0340   -0.8240 H       1     ****    0.0530 
     21 H6          3.8640   -9.1920   -2.2650 H       1     ****    0.0360 
     22 H7          2.0870   -4.0020   -1.8250 H       1     ****    0.1030 
     23 H8          1.8710   -5.4730    1.6770 H       1     ****    0.1380 
     24 H9          0.9790   -4.2020    3.5870 H       1     ****    0.1350 
     25 H10         0.3310   -1.8240    3.3160 H       1     ****    0.1340 
     26 H11         0.5850   -0.7160    1.1130 H       1     ****    0.1350 
     27 H12         1.4750   -1.9660   -0.8140 H       1     ****    0.1360 
@<TRIPOS>BOND
     1  2 1 1
     2  3 2 1
     3  4 2 1
     4  5 4 2
     5  6 5 1
     6  7 6 2
     7  8 6 1
     8  9 4 1
     9  9 8 1
    10 10 8 1
    11 11 10 ar
    12 12 11 ar
    13 13 12 ar
    14 14 13 ar
    15 15 10 ar
    16 15 14 ar
    17 16 1 1
    18 17 1 1
    19 18 1 1
    20 19 3 1
    21 20 3 1
    22 21 3 1
    23 22 8 1
    24 23 11 1
    25 24 12 1
    26 25 13 1
    27 26 14 1
    28 27 15 1
@<TRIPOS>SUBSTRUCTURE
1     ****    1
@<TRIPOS>MOLECULE
ZINC00000774
33 34 1 0 0 
SMALL
USER_CHARGES


@<TRIPOS>ATOM
      1 C1          5.4250   -4.7170   -2.1940 C.3     1     ****   -0.1370 
      2 C2          4.7170   -4.8090   -0.8570 C.3     1     ****    0.1060 
      3 C3          2.4130   -5.5320    0.1120 C.3     1     ****    0.1580 
      4 C4          3.0890   -6.1700    1.3500 C.3     1     ****   -0.0970 
      5 C5          3.4660   -7.6390    1.1490 C.3     1     ****   -0.0980 
      6 C6          2.2310   -8.4640    0.8020 C.3     1     ****   -0.0860 
      7 C7          1.5030   -7.9190   -0.4170 C.3     1     ****   -0.1830 
      8 C8          1.2160   -6.4340   -0.2710 C.2     1     ****    0.5360 
      9 O1          0.0910   -6.0020   -0.5260 O.2     1     ****   -0.4310 
     10 C9          1.8910   -4.1210    0.4100 C.2     1     ****   -0.2540 
     11 C10         1.6860   -3.4950    1.6300 C.2     1     ****   -0.0890 
     12 C11         1.1840   -2.1680    1.5000 C.2     1     ****   -0.1570 
     13 C12         1.0110   -1.8070    0.1850 C.2     1     ****   -0.1230 
     14 S1          1.4510   -3.0600   -0.8860 S.2     1     ****    0.0980 
     15 H1          6.3930   -4.2200   -2.0740 H       1     ****    0.1020 
     16 H2          5.6050   -5.7110   -2.6160 H       1     ****    0.0650 
     17 H3          4.8360   -4.1400   -2.9150 H       1     ****    0.0680 
     18 H4          4.5210   -3.8140   -0.4490 H       1     ****    0.1170 
     19 H5          5.3070   -5.3970   -0.1500 H       1     ****    0.1020 
     20 H6          3.9720   -5.6000    1.6610 H       1     ****    0.0730 
     21 H7          2.3990   -6.1360    2.2060 H       1     ****    0.1050 
     22 H8          4.2240   -7.7430    0.3650 H       1     ****    0.0310 
     23 H9          3.9130   -8.0280    2.0710 H       1     ****    0.0910 
     24 H10         2.5200   -9.5060    0.6240 H       1     ****    0.0820 
     25 H11         1.5490   -8.4640    1.6610 H       1     ****    0.0780 
     26 H12         2.0890   -8.0730   -1.3280 H       1     ****    0.0590 
     27 H13         0.5540   -8.4510   -0.5430 H       1     ****    0.1140 
     28 H14         1.8850   -3.9570    2.5880 H       1     ****    0.1650 
     29 H15         0.9590   -1.5130    2.3320 H       1     ****    0.1830 
     30 H16         0.6450   -0.8640   -0.1970 H       1     ****    0.2010 
     31 N1          3.4060   -5.5120   -1.0570 N.4     1     ****   -0.7670 
     32 H17         3.6050   -6.4740   -1.3620 H       1     ****    0.4430 
     33 H18         2.9210   -5.0730   -1.8540 H       1     ****    0.4460 
@<TRIPOS>BOND
     1  2 1 1
     2  4 3 1
     3  5 4 1
     4  6 5 1
     5  7 6 1
     6  8 3 1
     7  8 7 1
     8  9 8 2
     9 10 3 1
    10 11 10 2
    11 12 11 1
    12 13 12 2
    13 14 10 1
    14 14 13 1
    15 15 1 1
    16 16 1 1
    17 17 1 1
    18 18 2 1
    19 19 2 1
    20 20 4 1
    21 21 4 1
    22 22 5 1
    23 23 5 1
    24 24 6 1
    25 25 6 1
    26 26 7 1
    27 27 7 1
    28 28 11 1
    29 29 12 1
    30 30 13 1
    31 31 2 1
    32 31 3 1
    33 32 31 1
    34 33 31 1
@<TRIPOS>SUBSTRUCTURE
1     ****    1
@<TRIPOS>MOLECULE
ZINC00000864
20 20 1 0 0 
SMALL
USER_CHARGES


@<TRIPOS>ATOM
      1 C1          5.9150  -10.1040   -1.9660 C.3     1     ****   -0.1790 
      2 C2          4.9940   -9.1330   -1.2710 C.2     1     ****    0.6650 
      3 O1          4.5610   -9.3720   -0.1490 O.2     1     ****   -0.5930 
      4 N1          4.7480   -8.0190   -2.0620 N.am    1     ****   -0.4720 
      5 C3          3.9370   -6.9040   -1.7480 C.ar    1     ****    0.0360 
      6 C4          3.2370   -6.7540   -0.5470 C.ar    1     ****   -0.1170 
      7 C5          2.4560   -5.6150   -0.3190 C.ar    1     ****   -0.1860 
      8 C6          2.3760   -4.6250   -1.2940 C.ar    1     ****    0.0960 
      9 C7          3.0650   -4.7570   -2.4930 C.ar    1     ****   -0.1300 
     10 C8          3.8430   -5.8940   -2.7180 C.ar    1     ****   -0.1520 
     11 O2          1.6230   -3.5020   -1.1000 O.3     1     ****   -0.4990 
     12 H1          5.1970   -7.9910   -2.9740 H       1     ****    0.3140 
     13 H2          1.2060   -3.5560   -0.2230 H       1     ****    0.4180 
     14 H3          6.0930  -10.9710   -1.3230 H       1     ****    0.0820 
     15 H4          5.4600  -10.4440   -2.9010 H       1     ****    0.0620 
     16 H5          6.8720   -9.6200   -2.1800 H       1     ****    0.0620 
     17 H6          3.2710   -7.5000    0.2390 H       1     ****    0.1760 
     18 H7          1.9200   -5.5170    0.6210 H       1     ****    0.1370 
     19 H8          3.0020   -3.9840   -3.2540 H       1     ****    0.1510 
     20 H9          4.3760   -5.9810   -3.6630 H       1     ****    0.1300 
@<TRIPOS>BOND
     1  2 1 1
     2  3 2 2
     3  4 2 1
     4  5 4 1
     5  6 5 ar
     6  7 6 ar
     7  8 7 ar
     8  9 8 ar
     9 10 5 ar
    10 10 9 ar
    11 11 8 1
    12 12 4 1
    13 13 11 1
    14 14 1 1
    15 15 1 1
    16 16 1 1
    17 17 6 1
    18 18 7 1
    19 19 9 1
    20 20 10 1
@<TRIPOS>SUBSTRUCTURE
1     ****    1
@<TRIPOS>MOLECULE
ZINC00000868
22 23 1 0 0 
SMALL
USER_CHARGES


@<TRIPOS>ATOM
      1 C1          0.6260   -9.1000    0.4570 C.3     1     ****   -0.1710 
      2 C2          1.5030   -7.9820   -0.0480 C.2     1     ****    0.6670 
      3 O1          2.2150   -8.1410   -1.0330 O.2     1     ****   -0.5960 
      4 N1          1.3710   -6.8460    0.7320 N.am    1     ****   -0.4380 
      5 C3          1.9860   -5.6300    0.6110 C.2     1     ****   -0.0730 
      6 C4          2.8790   -5.0780   -0.2190 C.2     1     ****   -0.0470 
      7 S1          3.7360   -5.6210   -1.5950 S.3     1     ****    0.1550 
      8 S2          4.7410   -3.8300   -1.8990 S.3     1     ****   -0.1890 
      9 C5          4.0240   -3.0050   -0.5460 C.2     1     ****   -0.0650 
     10 C6          3.1560   -3.7230    0.1630 C.2     1     ****    0.0110 
     11 N2          2.4070   -3.4380    1.2630 N.am    1     ****   -0.3600 
     12 C7          1.6520   -4.5530    1.6150 C.2     1     ****    0.7140 
     13 O2          0.8640   -4.6910    2.5370 O.2     1     ****   -0.6160 
     14 C8          2.3970   -2.1730    1.9580 C.3     1     ****    0.0950 
     15 H1          0.7250   -6.9070    1.5160 H       1     ****    0.3450 
     16 H2          0.7490   -9.9830   -0.1760 H       1     ****    0.0860 
     17 H3          0.9060   -9.3580    1.4830 H       1     ****    0.0700 
     18 H4         -0.4230   -8.7900    0.4310 H       1     ****    0.0680 
     19 H5          4.2880   -1.9790   -0.3260 H       1     ****    0.1850 
     20 H6          2.0730   -1.3860    1.2710 H       1     ****    0.0410 
     21 H7          1.7090   -2.2130    2.8070 H       1     ****    0.0770 
     22 H8          3.4050   -1.9550    2.3250 H       1     ****    0.0390 
@<TRIPOS>BOND
     1  2 1 1
     2  3 2 2
     3  4 2 1
     4  5 4 1
     5  6 5 2
     6  7 6 1
     7  8 7 1
     8  9 8 1
     9 10 6 1
    10 10 9 2
    11 11 10 1
    12 12 5 1
    13 12 11 1
    14 13 12 2
    15 14 11 1
    16 15 4 1
    17 16 1 1
    18 17 1 1
    19 18 1 1
    20 19 9 1
    21 20 14 1
    22 21 14 1
    23 22 14 1
@<TRIPOS>SUBSTRUCTURE
1     ****    1
@<TRIPOS>MOLECULE
ZINC00000939
27 28 1 0 0 
SMALL
USER_CHARGES


@<TRIPOS>ATOM
      1 C1          3.8150   -7.4250    3.1350 C.ar    1     ****   -0.1760 
      2 C2          3.8630   -8.8120    3.2870 C.ar    1     ****   -0.0900 
      3 C3          4.7060   -9.5750    2.4790 C.ar    1     ****   -0.0100 
      4 C4          5.4980   -8.9430    1.5170 C.ar    1     ****    0.0450 
      5 C5          5.4480   -7.5490    1.3660 C.ar    1     ****   -0.1470 
      6 C6          4.6070   -6.7790    2.1760 C.ar    1     ****    0.0780 
      7 N1          4.4900   -5.3700    2.0930 N.am    1     ****   -0.4590 
      8 C7          5.2000   -4.5140    1.2640 C.2     1     ****    0.6930 
      9 O1          6.1090   -4.8060    0.4940 O.2     1     ****   -0.6080 
     10 C8          4.8210   -3.0790    1.3740 C.ar    1     ****   -0.2350 
     11 C9          3.4750   -2.7170    1.5300 C.ar    1     ****   -0.0660 
     12 C10         3.1250   -1.3680    1.6300 C.ar    1     ****   -0.0310 
     13 C11         4.1000   -0.3730    1.5700 C.ar    1     ****   -0.0640 
     14 C12         5.4370   -0.7280    1.3990 C.ar    1     ****   -0.1630 
     15 C13         5.7950   -2.0730    1.2930 C.ar    1     ****    0.2010 
     16 O2          7.1280   -2.3340    1.1220 O.3     1     ****   -0.4940 
     17 CL1         1.4710   -0.9290    1.8240 Cl      1     ****   -0.0830 
     18 CL2         6.5620   -9.8280    0.4790 Cl      1     ****   -0.0620 
     19 CL3         4.7240  -11.2860    2.7130 Cl      1     ****   -0.0670 
     20 H1          3.8250   -4.9580    2.7430 H       1     ****    0.3260 
     21 H2          7.2450   -3.2830    0.9420 H       1     ****    0.4600 
     22 H3          3.1480   -6.8550    3.7790 H       1     ****    0.1390 
     23 H4          3.2370   -9.2840    4.0410 H       1     ****    0.1530 
     24 H5          6.0710   -7.0930    0.6040 H       1     ****    0.1920 
     25 H6          2.6940   -3.4720    1.5550 H       1     ****    0.1500 
     26 H7          3.8320    0.6770    1.6480 H       1     ****    0.1560 
     27 H8          6.1970    0.0480    1.3450 H       1     ****    0.1650 
@<TRIPOS>BOND
     1  2 1 ar
     2  3 2 ar
     3  4 3 ar
     4  5 4 ar
     5  6 1 ar
     6  6 5 ar
     7  7 6 1
     8  8 7 1
     9  9 8 2
    10 10 8 1
    11 11 10 ar
    12 12 11 ar
    13 13 12 ar
    14 14 13 ar
    15 15 10 ar
    16 15 14 ar
    17 16 15 1
    18 17 12 1
    19 18 4 1
    20 19 3 1
    21 20 7 1
    22 21 16 1
    23 22 1 1
    24 23 2 1
    25 24 5 1
    26 25 11 1
    27 26 13 1
    28 27 14 1
@<TRIPOS>SUBSTRUCTURE
1     ****    1
@<TRIPOS>MOLECULE
ZINC00000995
45 48 1 0 0 
SMALL
USER_CHARGES


@<TRIPOS>ATOM
      1 C1          5.4920   -2.3760    2.5160 C.ar    1     ****   -0.0820 
      2 C2          4.1200   -2.4140    2.7610 C.ar    1     ****   -0.1170 
      3 C3          3.5370   -1.4800    3.6190 C.ar    1     ****   -0.0960 
      4 C4          4.3220   -0.4990    4.2400 C.ar    1     ****   -0.1800 
      5 C5          5.7010   -0.4710    3.9870 C.ar    1     ****   -0.1190 
      6 C6          6.2820   -1.4060    3.1290 C.ar    1     ****   -0.1140 
      7 C7          3.6950    0.5170    5.1570 C.3     1     ****    0.1760 
      8 C8          3.3040    2.9360    5.6850 C.3     1     ****    0.0810 
      9 C9          3.3380    4.3500    5.1090 C.3     1     ****    0.0730 
     10 N1          2.4640    4.4420    3.9410 N.am    1     ****   -0.4930 
     11 C10         2.8010    3.4940    2.8750 C.3     1     ****    0.0810 
     12 C11         2.7320    2.0640    3.3950 C.3     1     ****    0.0810 
     13 C12         1.4560    5.4180    3.8970 C.2     1     ****    0.7220 
     14 O1          1.4320    6.3550    4.6980 O.2     1     ****   -0.5410 
     15 C13         0.4190    5.2940    2.8960 C.2     1     ****   -0.0870 
     16 C14        -0.3300    6.2640    2.2560 C.2     1     ****   -0.0330 
     17 C15        -1.2610    5.5870    1.4250 C.ar    1     ****   -0.1340 
     18 C16        -2.2710    5.9700    0.5260 C.ar    1     ****   -0.0540 
     19 C17        -3.0080    4.9690   -0.1220 C.ar    1     ****   -0.1420 
     20 C18        -2.7520    3.6160    0.1170 C.ar    1     ****   -0.0800 
     21 C19        -1.7540    3.2140    1.0100 C.ar    1     ****   -0.1360 
     22 C20        -1.0380    4.2320    1.6370 C.ar    1     ****    0.0770 
     23 O2         -0.0350    4.0540    2.5390 O.2     1     ****   -0.2290 
     24 H1          5.9440   -3.1040    1.8480 H       1     ****    0.1610 
     25 H2          3.5050   -3.1710    2.2840 H       1     ****    0.1600 
     26 H3          2.4650   -1.5240    3.7970 H       1     ****    0.1430 
     27 H4          6.3330    0.2780    4.4580 H       1     ****    0.1310 
     28 H5          7.3510   -1.3770    2.9390 H       1     ****    0.1590 
     29 H6          4.2740    0.5550    6.0870 H       1     ****    0.1040 
     30 H7          2.6650    0.2460    5.4180 H       1     ****    0.1050 
     31 H8          2.3070    2.6750    6.0560 H       1     ****    0.1100 
     32 H9          4.0410    2.8270    6.4860 H       1     ****    0.1050 
     33 H10         3.0370    5.0630    5.8820 H       1     ****    0.1340 
     34 H11         4.3520    4.6160    4.7900 H       1     ****    0.0680 
     35 H12         2.1760    3.6190    1.9900 H       1     ****    0.1270 
     36 H13         3.8250    3.7270    2.5540 H       1     ****    0.0640 
     37 H14         3.0760    1.3640    2.6290 H       1     ****    0.1130 
     38 H15         1.7230    1.7960    3.7260 H       1     ****    0.1110 
     39 H16        -0.2150    7.3320    2.3730 H       1     ****    0.1900 
     40 H17        -2.4830    7.0170    0.3330 H       1     ****    0.1550 
     41 H18        -3.7920    5.2510   -0.8210 H       1     ****    0.1530 
     42 H19        -3.3410    2.8620   -0.3990 H       1     ****    0.1500 
     43 H20        -1.5500    2.1680    1.2040 H       1     ****    0.1500 
     44 N2          3.6550    1.9300    4.5990 N.4     1     ****   -0.6860 
     45 H21         4.6080    2.1530    4.2820 H       1     ****    0.4440 
@<TRIPOS>BOND
     1  2 1 ar
     2  3 2 ar
     3  4 3 ar
     4  5 4 ar
     5  6 1 ar
     6  6 5 ar
     7  7 4 1
     8  9 8 1
     9 10 9 1
    10 11 10 1
    11 12 11 1
    12 13 10 1
    13 14 13 2
    14 15 13 1
    15 16 15 2
    16 17 16 1
    17 18 17 ar
    18 19 18 ar
    19 20 19 ar
    20 21 20 ar
    21 22 17 ar
    22 22 21 ar
    23 23 15 1
    24 23 22 1
    25 24 1 1
    26 25 2 1
    27 26 3 1
    28 27 5 1
    29 28 6 1
    30 29 7 1
    31 30 7 1
    32 31 8 1
    33 32 8 1
    34 33 9 1
    35 34 9 1
    36 35 11 1
    37 36 11 1
    38 37 12 1
    39 38 12 1
    40 39 16 1
    41 40 18 1
    42 41 19 1
    43 42 20 1
    44 43 21 1
    45 44 7 1
    46 44 8 1
    47 44 12 1
    48 45 44 1
@<TRIPOS>SUBSTRUCTURE
1     ****    1
@<TRIPOS>MOLECULE
ZINC00000999
27 28 1 0 0 
SMALL
USER_CHARGES


@<TRIPOS>ATOM
      1 C1          4.3890   -7.6360    1.5840 C.3     1     ****    0.0900 
      2 N1          4.0450   -6.6910    0.5300 N.am    1     ****   -0.4170 
      3 C2          3.8070   -5.3630    0.8440 C.2     1     ****    0.4900 
      4 C3          3.4790   -4.4340   -0.1090 C.2     1     ****   -0.3530 
      5 C4          3.3480   -4.7390   -1.5000 C.2     1     ****    0.7630 
      6 O1          3.0430   -3.9080   -2.3500 O.2     1     ****   -0.6310 
      7 N2          3.6070   -6.1060   -1.7700 N.am    1     ****   -0.4830 
      8 C5          3.9520   -7.1160   -0.8130 C.2     1     ****    0.8140 
      9 O2          4.1540   -8.2880   -1.1500 O.2     1     ****   -0.6340 
     10 C6          3.5120   -6.5520   -3.1550 C.3     1     ****    0.0800 
     11 N3          3.3270   -3.2660    0.5880 N.pl3   1     ****   -0.1580 
     12 C7          3.5680   -3.5460    1.9080 C.2     1     ****    0.4510 
     13 N4          3.8610   -4.8150    2.0960 N.2     1     ****   -0.6830 
     14 C8          2.9930   -1.9560    0.0610 C.3     1     ****    0.0270 
     15 C9          1.4940   -1.7810   -0.1180 C.3     1     ****    0.0070 
     16 CL1         1.1340   -0.1600   -0.7520 Cl      1     ****   -0.1670 
     17 H1          3.5730   -7.6700    2.3120 H       1     ****    0.0530 
     18 H2          4.5480   -8.6420    1.1870 H       1     ****    0.0850 
     19 H3          5.3090   -7.3020    2.0750 H       1     ****    0.0550 
     20 H4          3.2630   -5.7390   -3.8400 H       1     ****    0.0820 
     21 H5          4.4700   -6.9920   -3.4500 H       1     ****    0.0560 
     22 H6          2.7420   -7.3280   -3.2210 H       1     ****    0.0550 
     23 H7          3.5160   -2.7920    2.6820 H       1     ****    0.0730 
     24 H8          3.3910   -1.2110    0.7610 H       1     ****    0.0740 
     25 H9          3.5330   -1.8300   -0.8840 H       1     ****    0.1080 
     26 H10         1.0830   -2.5130   -0.8200 H       1     ****    0.0940 
     27 H11         0.9650   -1.8920    0.8340 H       1     ****    0.0710 
@<TRIPOS>BOND
     1  2 1 1
     2  3 2 1
     3  4 3 ar
     4  5 4 1
     5  6 5 2
     6  7 5 1
     7  8 2 1
     8  8 7 1
     9  9 8 2
    10 10 7 1
    11 11 4 1
    12 12 11 1
    13 13 3 1
    14 13 12 2
    15 14 11 1
    16 15 14 1
    17 16 15 1
    18 17 1 1
    19 18 1 1
    20 19 1 1
    21 20 10 1
    22 21 10 1
    23 22 10 1
    24 23 12 1
    25 24 14 1
    26 25 14 1
    27 26 15 1
    28 27 15 1
@<TRIPOS>SUBSTRUCTURE
1     ****    1
@<TRIPOS>MOLECULE
ZINC00001021
28 29 1 0 0 
SMALL
USER_CHARGES


@<TRIPOS>ATOM
      1 C1          5.7110   -8.5210    0.1950 C.ar    1     ****   -0.1190 
      2 C2          5.3510   -8.1550   -1.1010 C.ar    1     ****   -0.1360 
      3 C3          4.1200   -7.5410   -1.3380 C.ar    1     ****   -0.1030 
      4 C4          3.2360   -7.2920   -0.2790 C.ar    1     ****   -0.1250 
      5 C5          3.6110   -7.6580    1.0210 C.ar    1     ****   -0.1050 
      6 C6          4.8420   -8.2720    1.2550 C.ar    1     ****   -0.1380 
      7 C7          1.9180   -6.6130   -0.5260 C.3     1     ****    0.1830 
      8 O1          1.9830   -5.2470   -0.0820 O.3     1     ****   -0.4380 
      9 C8          2.3030   -4.3070   -1.0060 C.2     1     ****    0.6520 
     10 O2          2.5350   -4.4980   -2.1890 O.2     1     ****   -0.5470 
     11 C9          2.3360   -2.9610   -0.3780 C.ar    1     ****   -0.1350 
     12 C10         2.1450   -2.7680    0.9960 C.ar    1     ****   -0.0690 
     13 C11         2.1900   -1.4800    1.5350 C.ar    1     ****   -0.1490 
     14 C12         2.4250   -0.3820    0.7100 C.ar    1     ****   -0.0970 
     15 C13         2.6180   -0.5680   -0.6580 C.ar    1     ****   -0.1470 
     16 C14         2.5750   -1.8530   -1.2020 C.ar    1     ****   -0.0730 
     17 H1          6.6700   -8.9990    0.3780 H       1     ****    0.1310 
     18 H2          6.0300   -8.3450   -1.9270 H       1     ****    0.1330 
     19 H3          3.8570   -7.2550   -2.3530 H       1     ****    0.1450 
     20 H4          2.9450   -7.4640    1.8580 H       1     ****    0.1340 
     21 H5          5.1240   -8.5540    2.2660 H       1     ****    0.1320 
     22 H6          1.6140   -6.6810   -1.5780 H       1     ****    0.0740 
     23 H7          1.1320   -7.1110    0.0530 H       1     ****    0.0700 
     24 H8          1.9620   -3.6020    1.6690 H       1     ****    0.1550 
     25 H9          2.0410   -1.3340    2.6020 H       1     ****    0.1380 
     26 H10         2.4600    0.6180    1.1320 H       1     ****    0.1360 
     27 H11         2.8030    0.2870   -1.3010 H       1     ****    0.1390 
     28 H12         2.7280   -1.9730   -2.2720 H       1     ****    0.1570 
@<TRIPOS>BOND
     1  2 1 ar
     2  3 2 ar
     3  4 3 ar
     4  5 4 ar
     5  6 1 ar
     6  6 5 ar
     7  7 4 1
     8  8 7 1
     9  9 8 1
    10 10 9 2
    11 11 9 1
    12 12 11 ar
    13 13 12 ar
    14 14 13 ar
    15 15 14 ar
    16 16 11 ar
    17 16 15 ar
    18 17 1 1
    19 18 2 1
    20 19 3 1
    21 20 5 1
    22 21 6 1
    23 22 7 1
    24 23 7 1
    25 24 12 1
    26 25 13 1
    27 26 14 1
    28 27 15 1
    29 28 16 1
@<TRIPOS>SUBSTRUCTURE
1     ****    1
@<TRIPOS>MOLECULE
ZINC00001050
20 20 1 0 0 
SMALL
USER_CHARGES


@<TRIPOS>ATOM
      1 C1          1.9320   -7.4340   -2.7340 C.3     1     ****   -0.1470 
      2 C2          2.5410   -7.1200   -1.3990 C.2     1     ****    0.7100 
      3 O1          2.9280   -7.9660   -0.6030 O.2     1     ****   -0.5540 
      4 O2          2.5840   -5.7380   -1.2450 O.3     1     ****   -0.3900 
      5 C3          3.1140   -5.3280   -0.0140 C.ar    1     ****    0.1620 
      6 C4          4.5050   -5.3510    0.1410 C.ar    1     ****   -0.1630 
      7 C5          5.0750   -4.8960    1.3260 C.ar    1     ****   -0.1180 
      8 C6          4.2520   -4.4060    2.3380 C.ar    1     ****   -0.0510 
      9 C7          2.8640   -4.3640    2.1740 C.ar    1     ****   -0.0650 
     10 C8          2.2680   -4.8220    0.9860 C.ar    1     ****   -0.1390 
     11 C9          0.7710   -4.7500    0.8320 C.2     1     ****    0.9240 
     12 O3          0.2080   -5.6320    0.1120 O.co2   1     ****   -0.8430 
     13 BR1         5.0230   -3.7840    3.9500 Br      1     ****   -0.1520 
     14 H1          1.8830   -8.5190   -2.8630 H       1     ****    0.0410 
     15 H2          0.9170   -7.0320   -2.7820 H       1     ****    0.1230 
     16 H3          2.5520   -7.0150   -3.5310 H       1     ****    0.0480 
     17 H4          5.1420   -5.7210   -0.6580 H       1     ****    0.1290 
     18 H5          6.1550   -4.9240    1.4440 H       1     ****    0.1220 
     19 H6          2.2390   -3.9740    2.9750 H       1     ****    0.1680 
     20 O4          0.1780   -3.8090    1.4480 O.co2   1     ****   -0.8060 
@<TRIPOS>BOND
     1  2 1 1
     2  3 2 2
     3  4 2 1
     4  5 4 1
     5  6 5 ar
     6  7 6 ar
     7  8 7 ar
     8  9 8 ar
     9 10 5 ar
    10 10 9 ar
    11 11 10 1
    12 12 11 1
    13 13 8 1
    14 14 1 1
    15 15 1 1
    16 16 1 1
    17 17 6 1
    18 18 7 1
    19 19 9 1
    20 20 11 2
@<TRIPOS>SUBSTRUCTURE
1     ****    1
@<TRIPOS>MOLECULE
ZINC00001090
26 27 1 0 0 
SMALL
USER_CHARGES


@<TRIPOS>ATOM
      1 C1          4.0220   -9.4810   -0.0300 C.3     1     ****    0.0890 
      2 N1          3.1150   -8.5180   -0.6060 N.am    1     ****   -0.5560 
      3 C2          3.3170   -7.1560   -0.5580 C.2     1     ****    0.7400 
      4 O1          4.2720   -6.5940   -0.0320 O.2     1     ****   -0.5630 
      5 O2          2.2610   -6.5130   -1.1980 O.3     1     ****   -0.3790 
      6 C3          2.3760   -5.1140   -1.2140 C.ar    1     ****    0.1290 
      7 C4          3.1230   -4.5340   -2.2410 C.ar    1     ****   -0.1220 
      8 C5          3.2330   -3.1510   -2.3020 C.ar    1     ****   -0.1190 
      9 C6          2.5890   -2.3560   -1.3510 C.ar    1     ****   -0.1170 
     10 C7          1.8190   -2.9320   -0.3250 C.ar    1     ****   -0.0300 
     11 C8          1.6980   -4.3400   -0.2480 C.ar    1     ****   -0.0320 
     12 C9          0.9120   -4.8970    0.7830 C.ar    1     ****   -0.1050 
     13 C10         0.2680   -4.0830    1.7160 C.ar    1     ****   -0.1280 
     14 C11         0.3950   -2.7010    1.6370 C.ar    1     ****   -0.1240 
     15 C12         1.1640   -2.1290    0.6240 C.ar    1     ****   -0.1190 
     16 H1          2.2790   -8.8570   -1.0700 H       1     ****    0.3310 
     17 H2          3.4840  -10.0370    0.7420 H       1     ****    0.0290 
     18 H3          4.3360  -10.1690   -0.8190 H       1     ****    0.0380 
     19 H4          4.8970   -8.9940    0.4070 H       1     ****    0.0790 
     20 H5          3.6190   -5.1530   -2.9830 H       1     ****    0.1470 
     21 H6          3.8170   -2.6860   -3.0910 H       1     ****    0.1370 
     22 H7          2.6910   -1.2750   -1.4220 H       1     ****    0.1350 
     23 H8          0.7950   -5.9750    0.8700 H       1     ****    0.1390 
     24 H9         -0.3310   -4.5310    2.5030 H       1     ****    0.1330 
     25 H10        -0.1060   -2.0670    2.3620 H       1     ****    0.1330 
     26 H11         1.2470   -1.0450    0.5800 H       1     ****    0.1340 
@<TRIPOS>BOND
     1  2 1 1
     2  3 2 1
     3  4 3 2
     4  5 3 1
     5  6 5 1
     6  7 6 ar
     7  8 7 ar
     8  9 8 ar
     9 10 9 ar
    10 11 6 ar
    11 11 10 ar
    12 12 11 ar
    13 13 12 ar
    14 14 13 ar
    15 15 10 ar
    16 15 14 ar
    17 16 2 1
    18 17 1 1
    19 18 1 1
    20 19 1 1
    21 20 7 1
    22 21 8 1
    23 22 9 1
    24 23 12 1
    25 24 13 1
    26 25 14 1
    27 26 15 1
@<TRIPOS>SUBSTRUCTURE
1     ****    1
@<TRIPOS>MOLECULE
ZINC00001165
30 32 1 0 0 
SMALL
USER_CHARGES


@<TRIPOS>ATOM
      1 C1          8.4440   -7.9370    3.2380 C.3     1     ****   -0.0670 
      2 C2          7.0960   -7.7880    2.6130 C.2     1     ****    0.1470 
      3 C3          6.5960   -8.6680    1.7340 C.2     1     ****   -0.3490 
      4 C4          5.2500   -8.4340    1.1690 C.2     1     ****    0.6020 
      5 O1          4.7580   -9.2190    0.3670 O.2     1     ****   -0.6160 
      6 C5          4.5450   -7.2130    1.6190 C.2     1     ****   -0.3660 
      7 C6          5.1670   -6.4000    2.4830 C.2     1     ****    0.2670 
      8 O2          6.4100   -6.6570    3.0210 O.3     1     ****   -0.1430 
      9 C7          4.4600   -5.1830    2.9250 C.ar    1     ****   -0.1320 
     10 C8          3.0620   -5.1610    2.7230 C.ar    1     ****    0.1370 
     11 C9          2.2680   -4.1240    3.2160 C.ar    1     ****   -0.1910 
     12 C10         2.8680   -3.0770    3.8970 C.ar    1     ****    0.1230 
     13 C11         4.2500   -3.0500    4.0760 C.ar    1     ****    0.0490 
     14 C12         5.0680   -4.0810    3.5730 C.ar    1     ****   -0.0860 
     15 C13         6.5590   -3.9410    3.6920 C.2     1     ****    0.9180 
     16 O3          7.2280   -3.9770    2.6140 O.co2   1     ****   -0.7860 
     17 O4          4.7640   -1.9730    4.7540 O.3     1     ****   -0.5660 
     18 O5          2.0750   -2.0740    4.3790 O.3     1     ****   -0.5130 
     19 O6          2.3820   -6.1640    2.0740 O.3     1     ****   -0.3410 
     20 C14         3.1610   -6.9290    1.1410 C.3     1     ****    0.2110 
     21 H1          5.6940   -2.1610    4.9770 H       1     ****    0.4870 
     22 H2          2.6620   -1.4330    4.8170 H       1     ****    0.4360 
     23 H3          8.3510   -7.9990    4.3270 H       1     ****    0.0660 
     24 H4          8.9620   -8.8380    2.8930 H       1     ****    0.0410 
     25 H5          9.0720   -7.0740    2.9930 H       1     ****    0.1000 
     26 H6          7.1350   -9.5520    1.4160 H       1     ****    0.1490 
     27 H7          1.1920   -4.1380    3.0700 H       1     ****    0.1520 
     28 H8          3.1850   -6.3970    0.1830 H       1     ****    0.0380 
     29 H9          2.6110   -7.8630    0.9850 H       1     ****    0.0780 
     30 O7          7.0140   -3.7490    4.8610 O.co2   1     ****   -0.8420 
@<TRIPOS>BOND
     1  2 1 1
     2  3 2 2
     3  4 3 1
     4  5 4 2
     5  6 4 1
     6  7 6 2
     7  8 2 1
     8  8 7 1
     9  9 7 1
    10 10 9 ar
    11 11 10 ar
    12 12 11 ar
    13 13 12 ar
    14 14 9 ar
    15 14 13 ar
    16 15 14 1
    17 16 15 1
    18 17 13 1
    19 18 12 1
    20 19 10 1
    21 20 6 1
    22 20 19 1
    23 21 17 1
    24 22 18 1
    25 23 1 1
    26 24 1 1
    27 25 1 1
    28 26 3 1
    29 27 11 1
    30 28 20 1
    31 29 20 1
    32 30 15 2
@<TRIPOS>SUBSTRUCTURE
1     ****    1
@<TRIPOS>MOLECULE
ZINC00001178
27 28 1 0 0 
SMALL
USER_CHARGES


@<TRIPOS>ATOM
      1 C1          2.6750   -6.9840    2.4780 C.ar    1     ****   -0.1740 
      2 C2          2.5780   -8.3770    2.4400 C.ar    1     ****   -0.0970 
      3 C3          3.1490   -9.0780    1.3820 C.ar    1     ****   -0.0090 
      4 C4          3.8150   -8.3960    0.3660 C.ar    1     ****   -0.0990 
      5 C5          3.9100   -7.0000    0.4060 C.ar    1     ****   -0.1450 
      6 C6          3.3390   -6.2810    1.4610 C.ar    1     ****    0.0670 
      7 N1          3.3880   -4.8720    1.5850 N.am    1     ****   -0.4580 
      8 C7          3.9440   -3.9700    0.6890 C.2     1     ****    0.6920 
      9 O1          4.4390   -4.2140   -0.4060 O.2     1     ****   -0.6130 
     10 C8          3.8820   -2.5450    1.1170 C.ar    1     ****   -0.2430 
     11 C9          4.0990   -2.2040    2.4600 C.ar    1     ****   -0.0430 
     12 C10         4.0410   -0.8650    2.8540 C.ar    1     ****   -0.0780 
     13 C11         3.7760    0.1410    1.9260 C.ar    1     ****   -0.0450 
     14 C12         3.5770   -0.1930    0.5880 C.ar    1     ****   -0.1720 
     15 C13         3.6380   -1.5280    0.1830 C.ar    1     ****    0.2110 
     16 O2          3.4350   -1.7670   -1.1490 O.3     1     ****   -0.4930 
     17 BR1         4.3300   -0.4100    4.6680 Br      1     ****   -0.0750 
     18 CL1         3.0350  -10.7950    1.3290 Cl      1     ****   -0.0920 
     19 H1          2.9360   -4.5000    2.4150 H       1     ****    0.3240 
     20 H2          3.6170   -2.7060   -1.3340 H       1     ****    0.4610 
     21 H3          2.2220   -6.4550    3.3130 H       1     ****    0.1350 
     22 H4          2.0570   -8.8980    3.2390 H       1     ****    0.1490 
     23 H5          4.2660   -8.9350   -0.4630 H       1     ****    0.1520 
     24 H6          4.4440   -6.5150   -0.4030 H       1     ****    0.1780 
     25 H7          4.3300   -2.9690    3.1970 H       1     ****    0.1490 
     26 H8          3.7300    1.1840    2.2270 H       1     ****    0.1550 
     27 H9          3.3780    0.5920   -0.1380 H       1     ****    0.1640 
@<TRIPOS>BOND
     1  2 1 ar
     2  3 2 ar
     3  4 3 ar
     4  5 4 ar
     5  6 1 ar
     6  6 5 ar
     7  7 6 1
     8  8 7 1
     9  9 8 2
    10 10 8 1
    11 11 10 ar
    12 12 11 ar
    13 13 12 ar
    14 14 13 ar
    15 15 10 ar
    16 15 14 ar
    17 16 15 1
    18 17 12 1
    19 18 3 1
    20 19 7 1
    21 20 16 1
    22 21 1 1
    23 22 2 1
    24 23 4 1
    25 24 5 1
    26 25 11 1
    27 26 13 1
    28 27 14 1
@<TRIPOS>SUBSTRUCTURE
1     ****    1
@<TRIPOS>MOLECULE
ZINC00001181
31 33 1 0 0 
SMALL
USER_CHARGES


@<TRIPOS>ATOM
      1 C1         -1.2650    4.5730   -0.3280 C.ar    1     ****   -0.1040 
      2 C2         -0.3900    3.5330   -0.0020 C.ar    1     ****   -0.1180 
      3 C3         -0.8320    2.4570    0.7680 C.ar    1     ****    0.0240 
      4 C4         -2.1560    2.4240    1.2110 C.ar    1     ****    0.0160 
      5 C5         -3.0310    3.4690    0.8820 C.ar    1     ****   -0.0940 
      6 C6         -2.5980    4.5580    0.1080 C.ar    1     ****   -0.1190 
      7 C7         -3.5020    5.6520   -0.2410 C.2     1     ****    0.3160 
      8 C8         -3.3690    6.8210   -0.9650 C.2     1     ****   -0.2450 
      9 C9         -4.6300    7.4660   -0.9370 C.2     1     ****   -0.1980 
     10 C10        -5.4650    6.6570   -0.1970 C.2     1     ****    0.2120 
     11 O1         -4.7830    5.5550    0.2270 O.2     1     ****   -0.3620 
     12 C11        -6.8430    6.7720    0.1780 C.2     1     ****    0.2910 
     13 N1         -7.5380    7.7940   -0.1960 N.2     1     ****   -0.4130 
     14 N2         -8.8380    7.8590    0.1840 N.am    1     ****   -0.2130 
     15 C12        -9.5700    6.9030    0.9760 C.3     1     ****   -0.0440 
     16 C13       -10.9310    7.5680    1.0250 C.2     1     ****    0.7030 
     17 O2        -11.9060    7.1120    1.6040 O.2     1     ****   -0.5650 
     18 N3        -10.8750    8.7430    0.3210 N.am    1     ****   -0.6090 
     19 C14        -9.6210    8.9530   -0.2040 C.2     1     ****    0.8190 
     20 O3         -9.2790    9.9170   -0.8760 O.2     1     ****   -0.5550 
     21 CL1        -2.7740    1.1240    2.1680 Cl      1     ****   -0.0640 
     22 CL2         0.2980    1.2040    1.1360 Cl      1     ****   -0.0620 
     23 H1        -11.6550    9.3760    0.2020 H       1     ****    0.3650 
     24 H2         -0.8830    5.3940   -0.9300 H       1     ****    0.1460 
     25 H3          0.6370    3.5780   -0.3580 H       1     ****    0.1550 
     26 H4         -4.0590    3.4260    1.2370 H       1     ****    0.1650 
     27 H5         -2.4750    7.1750   -1.4590 H       1     ****    0.1670 
     28 H6         -4.8940    8.4060   -1.4010 H       1     ****    0.1810 
     29 H7         -7.2520    5.9490    0.7890 H       1     ****    0.0130 
     30 H8         -9.6320    5.9430    0.4600 H       1     ****    0.1040 
     31 H9         -9.1450    6.8290    1.9790 H       1     ****    0.0900 
@<TRIPOS>BOND
     1  2 1 ar
     2  3 2 ar
     3  4 3 ar
     4  5 4 ar
     5  6 1 ar
     6  6 5 ar
     7  7 6 1
     8  8 7 2
     9  9 8 1
    10 10 9 2
    11 11 7 1
    12 11 10 1
    13 12 10 1
    14 13 12 2
    15 14 13 1
    16 15 14 1
    17 16 15 1
    18 17 16 2
    19 18 16 1
    20 19 14 1
    21 19 18 1
    22 20 19 2
    23 21 4 1
    24 22 3 1
    25 23 18 1
    26 24 1 1
    27 25 2 1
    28 26 5 1
    29 27 8 1
    30 28 9 1
    31 29 12 1
    32 30 15 1
    33 31 15 1
@<TRIPOS>SUBSTRUCTURE
1     ****    1
@<TRIPOS>MOLECULE
ZINC00001195
28 29 1 0 0 
SMALL
USER_CHARGES


@<TRIPOS>ATOM
      1 C1          3.3810   -5.2740    3.2870 C.3     1     ****   -0.0730 
      2 C2          3.7990   -5.9770    2.0200 C.ar    1     ****   -0.0630 
      3 C3          3.2240   -5.6450    0.7700 C.ar    1     ****    0.1870 
      4 C4          3.5600   -6.4040   -0.3670 C.ar    1     ****   -0.1620 
      5 C5          4.5190   -7.4110   -0.3040 C.ar    1     ****   -0.1090 
      6 C6          5.1470   -7.6880    0.9030 C.ar    1     ****   -0.1690 
      7 C7          4.7920   -6.9790    2.0550 C.ar    1     ****    0.0510 
      8 CL1         5.6250   -7.3900    3.5170 Cl      1     ****   -0.1390 
      9 N1          2.2430   -4.6450    0.6060 N.pl3   1     ****   -0.7080 
     10 C8          2.2370   -3.2850    0.9580 C.ar    1     ****    0.5930 
     11 C9          3.3930   -2.4990    1.0780 C.ar    1     ****   -0.2330 
     12 C10         3.2560   -1.1710    1.5140 C.ar    1     ****   -0.0800 
     13 C11         2.0040   -0.6460    1.7890 C.ar    1     ****   -0.2780 
     14 C12         0.9160   -1.4710    1.6070 C.ar    1     ****    0.3700 
     15 N2          1.0050   -2.7560    1.1990 N.ar    1     ****   -0.6920 
     16 C13         4.7620   -2.9660    0.7040 C.2     1     ****    0.9130 
     17 O1          5.6370   -2.9520    1.6240 O.co2   1     ****   -0.8110 
     18 H1          1.3080   -5.0150    0.4700 H       1     ****    0.4060 
     19 H2          2.3730   -4.8560    3.2130 H       1     ****    0.0450 
     20 H3          3.3370   -5.9710    4.1300 H       1     ****    0.0330 
     21 H4          4.0840   -4.4700    3.5260 H       1     ****    0.1020 
     22 H5          3.0910   -6.1830   -1.3240 H       1     ****    0.1270 
     23 H6          4.7830   -7.9670   -1.1980 H       1     ****    0.1190 
     24 H7          5.9080   -8.4630    0.9380 H       1     ****    0.1250 
     25 H8          4.1340   -0.5370    1.6190 H       1     ****    0.1460 
     26 H9          1.8850    0.3800    2.1190 H       1     ****    0.1210 
     27 H10        -0.0920   -1.1150    1.7910 H       1     ****   -0.0060 
     28 O2          4.9400   -3.3020   -0.5070 O.co2   1     ****   -0.8150 
@<TRIPOS>BOND
     1  2 1 1
     2  3 2 ar
     3  4 3 ar
     4  5 4 ar
     5  6 5 ar
     6  7 2 ar
     7  7 6 ar
     8  8 7 1
     9  9 3 1
    10 10 9 1
    11 11 10 ar
    12 12 11 ar
    13 13 12 ar
    14 14 13 ar
    15 15 10 ar
    16 15 14 ar
    17 16 11 1
    18 17 16 1
    19 18 9 1
    20 19 1 1
    21 20 1 1
    22 21 1 1
    23 22 4 1
    24 23 5 1
    25 24 6 1
    26 25 12 1
    27 26 13 1
    28 27 14 1
    29 28 16 2
@<TRIPOS>SUBSTRUCTURE
1     ****    1
@<TRIPOS>MOLECULE
ZINC00001228
41 43 1 0 0 
SMALL
USER_CHARGES


@<TRIPOS>ATOM
      1 C1          5.0070  -10.7700    4.0470 C.3     1     ****    0.0840 
      2 C2          6.3840   -8.7310    3.7280 C.3     1     ****    0.1160 
      3 C3          6.7170   -7.6080    2.7510 C.3     1     ****   -0.0550 
      4 C4          5.4850   -6.7640    2.4660 C.2     1     ****   -0.1680 
      5 C5          5.3990   -5.4240    2.6790 C.2     1     ****   -0.0240 
      6 C6          4.1560   -4.6930    2.3380 C.ar    1     ****   -0.1040 
      7 C7          3.8820   -4.3300    1.0120 C.ar    1     ****   -0.1120 
      8 C8          2.7140   -3.6320    0.7010 C.ar    1     ****   -0.1230 
      9 C9          1.8200   -3.2920    1.7170 C.ar    1     ****    0.0310 
     10 C10         2.0850   -3.6430    3.0400 C.ar    1     ****   -0.1230 
     11 C11         3.2530   -4.3400    3.3510 C.ar    1     ****   -0.0990 
     12 CL1         0.3790   -2.4320    1.3330 Cl      1     ****   -0.0580 
     13 C12         6.5400   -4.6960    3.2810 C.ar    1     ****    0.4120 
     14 C13         7.3110   -3.8290    2.5120 C.ar    1     ****   -0.2140 
     15 C14         8.3590   -3.1560    3.1320 C.ar    1     ****   -0.0840 
     16 C15         8.6050   -3.3580    4.4850 C.ar    1     ****   -0.2220 
     17 C16         7.7820   -4.2360    5.1700 C.ar    1     ****    0.3970 
     18 N1          6.7560   -4.9090    4.6030 N.ar    1     ****   -0.6760 
     19 C17         4.3550   -7.6310    1.9350 C.3     1     ****   -0.0620 
     20 C18         4.0430   -8.7640    2.9120 C.3     1     ****    0.1170 
     21 H1          4.2310  -11.3780    3.5740 H       1     ****    0.1020 
     22 H2          5.9300  -11.3490    4.1390 H       1     ****    0.1020 
     23 H3          4.6760  -10.3980    5.0200 H       1     ****    0.1060 
     24 H4          6.0420   -8.3500    4.6980 H       1     ****    0.1140 
     25 H5          7.2560   -9.3770    3.8760 H       1     ****    0.0960 
     26 H6          7.5530   -7.0300    3.1540 H       1     ****    0.1130 
     27 H7          7.0760   -8.0320    1.8040 H       1     ****    0.0680 
     28 H8          4.5740   -4.5880    0.2130 H       1     ****    0.1400 
     29 H9          2.5140   -3.3590   -0.3320 H       1     ****    0.1610 
     30 H10         1.3940   -3.3780    3.8360 H       1     ****    0.1610 
     31 H11         3.4520   -4.6070    4.3870 H       1     ****    0.1510 
     32 H12         7.1140   -3.6740    1.4570 H       1     ****    0.1540 
     33 H13         8.9820   -2.4730    2.5610 H       1     ****    0.1570 
     34 H14         9.4150   -2.8430    4.9890 H       1     ****    0.1610 
     35 H15         7.9310   -4.4270    6.2280 H       1     ****    0.0340 
     36 H16         3.4300   -7.0740    1.7610 H       1     ****    0.1120 
     37 H17         4.6530   -8.0450    0.9630 H       1     ****    0.0710 
     38 H18         3.2850   -9.4320    2.4910 H       1     ****    0.0970 
     39 H19         3.6990   -8.3870    3.8830 H       1     ****    0.1080 
     40 N2          5.2850   -9.5920    3.1460 N.4     1     ****   -0.6840 
     41 H20         5.5840  -10.0120    2.2490 H       1     ****    0.4440 
@<TRIPOS>BOND
     1  3 2 1
     2  4 3 1
     3  5 4 2
     4  6 5 1
     5  7 6 ar
     6  8 7 ar
     7  9 8 ar
     8 10 9 ar
     9 11 6 ar
    10 11 10 ar
    11 12 9 1
    12 13 5 1
    13 14 13 ar
    14 15 14 ar
    15 16 15 ar
    16 17 16 ar
    17 18 13 ar
    18 18 17 ar
    19 19 4 1
    20 20 19 1
    21 21 1 1
    22 22 1 1
    23 23 1 1
    24 24 2 1
    25 25 2 1
    26 26 3 1
    27 27 3 1
    28 28 7 1
    29 29 8 1
    30 30 10 1
    31 31 11 1
    32 32 14 1
    33 33 15 1
    34 34 16 1
    35 35 17 1
    36 36 19 1
    37 37 19 1
    38 38 20 1
    39 39 20 1
    40 40 1 1
    41 40 2 1
    42 40 20 1
    43 41 40 1
@<TRIPOS>SUBSTRUCTURE
1     ****    1
@<TRIPOS>MOLECULE
ZINC00001229
44 46 1 0 0 
SMALL
USER_CHARGES


@<TRIPOS>ATOM
      1 C1          6.7100   -9.4950    0.5850 C.3     1     ****    0.0820 
      2 C2          7.4460   -7.1110    0.4820 C.3     1     ****    0.0790 
      3 C3          7.4670   -5.7940    1.2490 C.3     1     ****    0.0760 
      4 C4          5.3100   -6.3980    2.3580 C.3     1     ****    0.0710 
      5 C5          5.2750   -7.7100    1.5820 C.3     1     ****    0.0790 
      6 C6          5.9590   -3.8890    2.0460 C.3     1     ****    0.3010 
      7 C7          4.5320   -3.3420    2.0620 C.ar    1     ****   -0.2040 
      8 C8          3.9700   -2.8870    0.8540 C.ar    1     ****   -0.1240 
      9 C9          2.6620   -2.3990    0.8040 C.ar    1     ****   -0.1120 
     10 C10         1.8890   -2.3630    1.9600 C.ar    1     ****   -0.0600 
     11 C11         2.4230   -2.8180    3.1620 C.ar    1     ****   -0.1190 
     12 C12         3.7320   -3.3070    3.2130 C.ar    1     ****   -0.0860 
     13 C13         6.8350   -3.5120    3.2390 C.ar    1     ****   -0.1860 
     14 C14         6.7490   -4.1400    4.4900 C.ar    1     ****   -0.1340 
     15 C15         7.5790   -3.7580    5.5470 C.ar    1     ****   -0.1160 
     16 C16         8.5090   -2.7370    5.3750 C.ar    1     ****   -0.0660 
     17 C17         8.6060   -2.0930    4.1460 C.ar    1     ****   -0.1060 
     18 C18         7.7760   -2.4750    3.0900 C.ar    1     ****   -0.0970 
     19 H1          6.2050  -10.2150    1.2340 H       1     ****    0.1270 
     20 H2          6.1970   -9.4040   -0.3760 H       1     ****    0.1180 
     21 H3          7.7550   -9.7860    0.4480 H       1     ****    0.1270 
     22 H4          8.4640   -7.4870    0.3370 H       1     ****    0.1520 
     23 H5          6.9520   -7.0070   -0.4910 H       1     ****    0.1270 
     24 H6          7.9940   -5.8920    2.2040 H       1     ****    0.1410 
     25 H7          7.9380   -5.0120    0.6450 H       1     ****    0.1490 
     26 H8          5.8360   -6.5290    3.3050 H       1     ****    0.1300 
     27 H9          4.2920   -6.0420    2.5360 H       1     ****    0.1640 
     28 H10         4.7400   -7.6100    0.6300 H       1     ****    0.1280 
     29 H11         4.8100   -8.4990    2.1820 H       1     ****    0.1510 
     30 H12         6.4260   -3.3620    1.2010 H       1     ****    0.1040 
     31 H13         4.5500   -2.9060   -0.0670 H       1     ****    0.1300 
     32 H14         2.2490   -2.0480   -0.1370 H       1     ****    0.1710 
     33 H15         0.8720   -1.9840    1.9240 H       1     ****    0.1760 
     34 H16         1.8190   -2.7950    4.0650 H       1     ****    0.1720 
     35 H17         4.0990   -3.6600    4.1700 H       1     ****    0.1510 
     36 H18         6.0240   -4.9250    4.6780 H       1     ****    0.1200 
     37 H19         7.4940   -4.2560    6.5100 H       1     ****    0.1660 
     38 H20         9.1520   -2.4410    6.1990 H       1     ****    0.1770 
     39 H21         9.3260   -1.2910    4.0080 H       1     ****    0.1760 
     40 H22         7.8730   -1.9480    2.1430 H       1     ****    0.1480 
     41 N1          6.6870   -8.1540    1.2700 N.4     1     ****   -0.6880 
     42 H23         7.1770   -8.2830    2.1670 H       1     ****    0.4640 
     43 N2          6.0450   -5.3540    1.5460 N.4     1     ****   -0.7070 
     44 H24         5.5630   -5.3240    0.6360 H       1     ****    0.4470 
@<TRIPOS>BOND
     1  3 2 1
     2  5 4 1
     3  7 6 1
     4  8 7 ar
     5  9 8 ar
     6 10 9 ar
     7 11 10 ar
     8 12 7 ar
     9 12 11 ar
    10 13 6 1
    11 14 13 ar
    12 15 14 ar
    13 16 15 ar
    14 17 16 ar
    15 18 13 ar
    16 18 17 ar
    17 19 1 1
    18 20 1 1
    19 21 1 1
    20 22 2 1
    21 23 2 1
    22 24 3 1
    23 25 3 1
    24 26 4 1
    25 27 4 1
    26 28 5 1
    27 29 5 1
    28 30 6 1
    29 31 8 1
    30 32 9 1
    31 33 10 1
    32 34 11 1
    33 35 12 1
    34 36 14 1
    35 37 15 1
    36 38 16 1
    37 39 17 1
    38 40 18 1
    39 41 1 1
    40 41 2 1
    41 41 5 1
    42 42 41 1
    43 43 3 1
    44 43 4 1
    45 43 6 1
    46 44 43 1
@<TRIPOS>SUBSTRUCTURE
1     ****    1
@<TRIPOS>MOLECULE
ZINC00001278
26 27 1 0 0 
SMALL
USER_CHARGES


@<TRIPOS>ATOM
      1 C1          3.4950   -8.4430    0.5840 C.ar    1     ****   -0.1060 
      2 C2          2.1110   -8.4120    0.7500 C.ar    1     ****   -0.1210 
      3 C3          1.4540   -7.1920    0.9100 C.ar    1     ****   -0.0760 
      4 C4          2.1860   -5.9980    0.9040 C.ar    1     ****   -0.1400 
      5 C5          3.5690   -6.0270    0.7380 C.ar    1     ****   -0.1230 
      6 C6          4.2250   -7.2540    0.5780 C.ar    1     ****   -0.0870 
      7 C7          4.3520   -4.7760    0.7280 C.2     1     ****    0.5790 
      8 O1          5.5660   -4.8110    0.5640 O.2     1     ****   -0.5060 
      9 C8          3.6280   -3.4850    0.9210 C.2     1     ****   -0.1870 
     10 C9          2.2940   -3.4720    1.0710 C.2     1     ****    0.0520 
     11 C10         1.4840   -4.7160    1.0730 C.2     1     ****    0.5580 
     12 O2          0.2680   -4.6650    1.2130 O.2     1     ****   -0.5220 
     13 O3          1.6050   -2.2850    1.2440 O.3     1     ****   -0.4830 
     14 C11         4.4710   -2.2290    0.9040 C.3     1     ****    0.0000 
     15 C12         5.1360   -1.9820    2.2320 C.2     1     ****   -0.1430 
     16 C13         6.4510   -1.8980    2.4830 C.2     1     ****    0.0730 
     17 CL1         7.6640   -2.0670    1.2680 Cl      1     ****   -0.0650 
     18 CL2         7.0000   -1.5990    4.0980 Cl      1     ****   -0.0850 
     19 H1          0.6610   -2.5150    1.3340 H       1     ****    0.4470 
     20 H2          4.0050   -9.3940    0.4600 H       1     ****    0.1450 
     21 H3          1.5440   -9.3390    0.7550 H       1     ****    0.1450 
     22 H4          0.3750   -7.1890    1.0380 H       1     ****    0.1600 
     23 H5          5.3030   -7.3020    0.4460 H       1     ****    0.1650 
     24 H6          5.1870   -2.2840    0.0770 H       1     ****    0.0850 
     25 H7          3.8520   -1.3520    0.6750 H       1     ****    0.0820 
     26 H8          4.4460   -1.8480    3.0640 H       1     ****    0.1510 
@<TRIPOS>BOND
     1  2 1 ar
     2  3 2 ar
     3  4 3 ar
     4  5 4 ar
     5  6 1 ar
     6  6 5 ar
     7  7 5 1
     8  8 7 2
     9  9 7 1
    10 10 9 2
    11 11 4 1
    12 11 10 1
    13 12 11 2
    14 13 10 1
    15 14 9 1
    16 15 14 1
    17 16 15 2
    18 17 16 1
    19 18 16 1
    20 19 13 1
    21 20 1 1
    22 21 2 1
    23 22 3 1
    24 23 6 1
    25 24 14 1
    26 25 14 1
    27 26 15 1
@<TRIPOS>SUBSTRUCTURE
1     ****    1
@<TRIPOS>MOLECULE
ZINC00001345
38 41 1 0 0 
SMALL
USER_CHARGES


@<TRIPOS>ATOM
      1 C1          1.7150   -5.0550    1.5960 C.3     1     ****   -0.0540 
      2 C2          3.0530   -5.5370    2.1010 C.ar    1     ****   -0.1410 
      3 C3          3.4270   -6.9060    2.0090 C.ar    1     ****    0.0560 
      4 C4          2.5730   -7.8590    1.4220 C.ar    1     ****   -0.1180 
      5 C5          2.9480   -9.1890    1.3250 C.ar    1     ****   -0.0840 
      6 N1          4.1400   -9.5910    1.7900 N.ar    1     ****   -0.0050 
      7 C6          4.9880   -8.7120    2.3590 C.ar    1     ****    0.0410 
      8 C7          4.6760   -7.3470    2.5060 C.ar    1     ****   -0.1310 
      9 C8          5.5790   -6.4230    3.1290 C.ar    1     ****    0.0370 
     10 C9          5.2420   -5.0380    3.1440 C.ar    1     ****   -0.0600 
     11 C10         3.9950   -4.6490    2.6540 C.ar    1     ****    0.0940 
     12 N2          3.9010   -3.2860    2.8300 N.pl3   1     ****   -0.1640 
     13 C11         5.0500   -2.7650    3.3620 C.ar    1     ****   -0.0480 
     14 C12         5.9250   -3.8310    3.5620 C.ar    1     ****   -0.0480 
     15 C13         7.2090   -3.5310    4.0770 C.ar    1     ****   -0.1640 
     16 C14         7.5360   -2.2040    4.3840 C.ar    1     ****    0.1280 
     17 C15         6.6320   -1.1700    4.1890 C.ar    1     ****   -0.1080 
     18 C16         5.3660   -1.4350    3.6670 C.ar    1     ****   -0.0990 
     19 O1          8.7690   -1.8880    4.8860 O.3     1     ****   -0.4780 
     20 C17         6.8740   -6.9250    3.7290 C.3     1     ****   -0.0820 
     21 C18         4.5420  -11.0010    1.6720 C.3     1     ****   -0.0220 
     22 H1          3.0980   -2.7290    2.5750 H       1     ****    0.3240 
     23 H2          9.2900   -2.7050    4.9690 H       1     ****    0.4280 
     24 H3          0.9030   -5.5840    2.1070 H       1     ****    0.0600 
     25 H4          1.5610   -3.9880    1.7760 H       1     ****    0.0510 
     26 H5          1.6370   -5.2180    0.5160 H       1     ****    0.0610 
     27 H6          1.6000   -7.5840    1.0240 H       1     ****    0.1850 
     28 H7          2.3080   -9.9370    0.8720 H       1     ****    0.1950 
     29 H8          5.9290   -9.1430    2.6790 H       1     ****    0.1920 
     30 H9          7.9490   -4.3100    4.2250 H       1     ****    0.1460 
     31 H10         6.9060   -0.1470    4.4330 H       1     ****    0.1750 
     32 H11         4.6540   -0.6330    3.5000 H       1     ****    0.1590 
     33 H12         6.7440   -7.8950    4.2190 H       1     ****    0.0510 
     34 H13         7.6420   -7.0060    2.9550 H       1     ****    0.0730 
     35 H14         7.2280   -6.2660    4.5220 H       1     ****    0.0780 
     36 H15         5.3470  -11.0540    0.9340 H       1     ****    0.0880 
     37 H16         4.8850  -11.3420    2.6530 H       1     ****    0.0880 
     38 H17         3.6930  -11.6080    1.3500 H       1     ****    0.0950 
@<TRIPOS>BOND
     1  2 1 1
     2  3 2 ar
     3  4 3 ar
     4  5 4 ar
     5  6 5 ar
     6  7 6 ar
     7  8 3 ar
     8  8 7 ar
     9  9 8 ar
    10 10 9 ar
    11 11 2 ar
    12 11 10 ar
    13 12 11 1
    14 13 12 1
    15 14 10 1
    16 14 13 ar
    17 15 14 ar
    18 16 15 ar
    19 17 16 ar
    20 18 13 ar
    21 18 17 ar
    22 19 16 1
    23 20 9 1
    24 21 6 1
    25 22 12 1
    26 23 19 1
    27 24 1 1
    28 25 1 1
    29 26 1 1
    30 27 4 1
    31 28 5 1
    32 29 7 1
    33 30 15 1
    34 31 17 1
    35 32 18 1
    36 33 20 1
    37 34 20 1
    38 35 20 1
    39 36 21 1
    40 37 21 1
    41 38 21 1
@<TRIPOS>SUBSTRUCTURE
1     ****    1
@<TRIPOS>MOLECULE
ZINC00001373
45 48 1 0 0 
SMALL
USER_CHARGES


@<TRIPOS>ATOM
      1 C1         -0.7030    0.7650   -9.0560 C.3     1     ****   -0.0890 
      2 C2         -0.6370   -0.3480  -10.1360 C.3     1     ****   -0.0450 
      3 C3          0.8200   -0.8390  -10.2340 C.3     1     ****   -0.0600 
      4 C4          1.2690   -1.5890   -8.9610 C.3     1     ****   -0.0720 
      5 C5          0.2850   -2.7220   -8.5420 C.3     1     ****   -0.0090 
      6 C6          0.6600   -3.3640   -7.2080 C.ar    1     ****   -0.1000 
      7 C7          2.0040   -3.5120   -6.8160 C.ar    1     ****   -0.0910 
      8 C8          2.3510   -4.1480   -5.6220 C.ar    1     ****   -0.2150 
      9 C9          1.3540   -4.6660   -4.8080 C.ar    1     ****    0.1230 
     10 C10         0.0190   -4.5620   -5.1780 C.ar    1     ****   -0.1620 
     11 C11        -0.3390   -3.9290   -6.3810 C.ar    1     ****   -0.0380 
     12 C12        -1.8100   -3.8380   -6.7110 C.3     1     ****   -0.0370 
     13 C13        -2.1040   -3.3480   -8.1260 C.3     1     ****   -0.0740 
     14 C14        -1.1660   -2.1830   -8.4710 C.3     1     ****   -0.0480 
     15 C15        -1.5090   -1.5650   -9.8300 C.3     1     ****   -0.0640 
     16 C16        -2.9270   -1.0570  -10.0770 C.3     1     ****   -0.1010 
     17 C17        -2.7490   -0.1670  -11.3360 C.3     1     ****    0.1030 
     18 C18        -1.2440    0.1880  -11.4530 C.3     1     ****    0.1100 
     19 O1         -0.7090   -0.5190  -12.5640 O.3     1     ****   -0.5910 
     20 O2         -3.5120    1.0210  -11.1940 O.3     1     ****   -0.5930 
     21 O3          1.6540   -5.2930   -3.6320 O.3     1     ****   -0.4990 
     22 H1         -1.1230   -0.1540  -13.3650 H       1     ****    0.4040 
     23 H2         -3.2030    1.4980  -10.4060 H       1     ****    0.4000 
     24 H3          2.6200   -5.2860   -3.5160 H       1     ****    0.4180 
     25 H4         -1.7200    1.1300   -8.8940 H       1     ****    0.0250 
     26 H5         -0.3240    0.4490   -8.0810 H       1     ****    0.0490 
     27 H6         -0.0990    1.6260   -9.3650 H       1     ****    0.0380 
     28 H7          0.9380   -1.5300  -11.0780 H       1     ****    0.0640 
     29 H8          1.4980    0.0010  -10.4230 H       1     ****    0.0440 
     30 H9          2.2600   -2.0080   -9.1710 H       1     ****    0.0400 
     31 H10         1.4060   -0.8800   -8.1360 H       1     ****    0.0440 
     32 H11         0.3680   -3.4800   -9.3430 H       1     ****    0.0580 
     33 H12         2.8140   -3.1410   -7.4380 H       1     ****    0.1340 
     34 H13         3.3990   -4.2360   -5.3490 H       1     ****    0.1320 
     35 H14        -0.7510   -4.9760   -4.5310 H       1     ****    0.1480 
     36 H15        -2.2830   -4.8180   -6.5720 H       1     ****    0.0540 
     37 H16        -2.2710   -3.1460   -5.9940 H       1     ****    0.0520 
     38 H17        -1.9650   -4.1690   -8.8410 H       1     ****    0.0470 
     39 H18        -3.1570   -3.0490   -8.1840 H       1     ****    0.0440 
     40 H19        -1.2950   -1.4500   -7.6590 H       1     ****    0.0590 
     41 H20        -1.3740   -2.3850  -10.5610 H       1     ****    0.0630 
     42 H21        -3.6250   -1.8770  -10.2780 H       1     ****    0.0560 
     43 H22        -3.3220   -0.4930   -9.2250 H       1     ****    0.0500 
     44 H23        -3.1130   -0.7280  -12.2100 H       1     ****    0.0830 
     45 H24        -1.0290    1.2600  -11.5670 H       1     ****    0.0480 
@<TRIPOS>BOND
     1  2 1 1
     2  3 2 1
     3  4 3 1
     4  5 4 1
     5  6 5 1
     6  7 6 ar
     7  8 7 ar
     8  9 8 ar
     9 10 9 ar
    10 11 6 ar
    11 11 10 ar
    12 12 11 1
    13 13 12 1
    14 14 5 1
    15 14 13 1
    16 15 2 1
    17 15 14 1
    18 16 15 1
    19 17 16 1
    20 18 2 1
    21 18 17 1
    22 19 18 1
    23 20 17 1
    24 21 9 1
    25 22 19 1
    26 23 20 1
    27 24 21 1
    28 25 1 1
    29 26 1 1
    30 27 1 1
    31 28 3 1
    32 29 3 1
    33 30 4 1
    34 31 4 1
    35 32 5 1
    36 33 7 1
    37 34 8 1
    38 35 10 1
    39 36 12 1
    40 37 12 1
    41 38 13 1
    42 39 13 1
    43 40 14 1
    44 41 15 1
    45 42 16 1
    46 43 16 1
    47 44 17 1
    48 45 18 1
@<TRIPOS>SUBSTRUCTURE
1     ****    1
@<TRIPOS>MOLECULE
ZINC00001378
36 38 1 0 0 
SMALL
USER_CHARGES


@<TRIPOS>ATOM
      1 C1          8.1740   -6.1120    0.2620 C.3     1     ****   -0.0900 
      2 C2          8.1840   -6.2080    1.7810 C.3     1     ****   -0.0450 
      3 C3          6.9670   -6.9320    2.3110 C.ar    1     ****   -0.0460 
      4 C4          7.0680   -8.3170    2.5390 C.ar    1     ****   -0.1270 
      5 C5          5.9660   -9.0610    2.9640 C.ar    1     ****   -0.1180 
      6 C6          4.7400   -8.4360    3.1640 C.ar    1     ****   -0.1310 
      7 C7          4.6140   -7.0670    2.9400 C.ar    1     ****   -0.1230 
      8 C8          5.7170   -6.3080    2.5130 C.ar    1     ****    0.0310 
      9 N1          5.5400   -4.9030    2.3280 N.am    1     ****   -0.3250 
     10 C9          4.7300   -4.4010    1.3120 C.2     1     ****    0.5070 
     11 N2          4.4800   -3.1380    1.1470 N.2     1     ****   -0.6290 
     12 C10         5.0710   -2.2170    2.0210 C.ar    1     ****    0.1860 
     13 C11         4.8310   -0.8530    1.8280 C.ar    1     ****   -0.1250 
     14 C12         5.4060    0.0970    2.6750 C.ar    1     ****   -0.0950 
     15 C13         6.2270   -0.3110    3.7240 C.ar    1     ****   -0.1550 
     16 C14         6.4740   -1.6670    3.9290 C.ar    1     ****   -0.0600 
     17 C15         5.8950   -2.6130    3.0750 C.ar    1     ****   -0.1940 
     18 C16         6.1340   -4.0570    3.2800 C.2     1     ****    0.7130 
     19 O1          6.7850   -4.4210    4.2560 O.2     1     ****   -0.6100 
     20 C17         4.1070   -5.3570    0.3180 C.3     1     ****   -0.1400 
     21 H1          9.0850   -5.6180   -0.0900 H       1     ****    0.0400 
     22 H2          8.1270   -7.1040   -0.1990 H       1     ****    0.0340 
     23 H3          7.3180   -5.5330   -0.0970 H       1     ****    0.0350 
     24 H4          9.0910   -6.7360    2.1010 H       1     ****    0.0520 
     25 H5          8.2690   -5.2080    2.2130 H       1     ****    0.0670 
     26 H6          8.0130   -8.8310    2.3750 H       1     ****    0.1380 
     27 H7          6.0670  -10.1290    3.1350 H       1     ****    0.1360 
     28 H8          3.8830   -9.0140    3.4980 H       1     ****    0.1370 
     29 H9          3.6530   -6.5910    3.1190 H       1     ****    0.1400 
     30 H10         4.1930   -0.5220    1.0120 H       1     ****    0.1520 
     31 H11         5.2130    1.1540    2.5150 H       1     ****    0.1360 
     32 H12         6.6740    0.4290    4.3830 H       1     ****    0.1390 
     33 H13         7.1160   -1.9700    4.7520 H       1     ****    0.1580 
     34 H14         4.8010   -6.1510    0.0310 H       1     ****    0.0670 
     35 H15         3.2070   -5.7990    0.7540 H       1     ****    0.0650 
     36 H16         3.8150   -4.8160   -0.5880 H       1     ****    0.0790 
@<TRIPOS>BOND
     1  2 1 1
     2  3 2 1
     3  4 3 ar
     4  5 4 ar
     5  6 5 ar
     6  7 6 ar
     7  8 3 ar
     8  8 7 ar
     9  9 8 1
    10 10 9 1
    11 11 10 2
    12 12 11 1
    13 13 12 ar
    14 14 13 ar
    15 15 14 ar
    16 16 15 ar
    17 17 12 ar
    18 17 16 ar
    19 18 9 1
    20 18 17 1
    21 19 18 2
    22 20 10 1
    23 21 1 1
    24 22 1 1
    25 23 1 1
    26 24 2 1
    27 25 2 1
    28 26 4 1
    29 27 5 1
    30 28 6 1
    31 29 7 1
    32 30 13 1
    33 31 14 1
    34 32 15 1
    35 33 16 1
    36 34 20 1
    37 35 20 1
    38 36 20 1
@<TRIPOS>SUBSTRUCTURE
1     ****    1
@<TRIPOS>MOLECULE
ZINC00001386
21 21 1 0 0 
SMALL
USER_CHARGES


@<TRIPOS>ATOM
      1 C1          6.7960   -6.8520    0.0700 C.3     1     ****   -0.0910 
      2 C2          6.1660   -7.9790   -0.7330 C.3     1     ****   -0.1340 
      3 C3          4.6960   -7.7450   -0.9560 C.ar    1     ****    0.4120 
      4 C4          4.2600   -6.9760   -2.0340 C.ar    1     ****   -0.2340 
      5 C5          2.8880   -6.7710   -2.1970 C.ar    1     ****   -0.0830 
      6 C6          1.9960   -7.3330   -1.2840 C.ar    1     ****   -0.2010 
      7 C7          2.5230   -8.0750   -0.2410 C.ar    1     ****    0.3970 
      8 N1          3.8440   -8.2920   -0.0550 N.ar    1     ****   -0.6520 
      9 C8          2.3980   -5.9580   -3.3350 C.2     1     ****    0.4270 
     10 S1          1.1190   -6.3920   -4.3270 S.2     1     ****   -0.4690 
     11 N2          3.0740   -4.7790   -3.5520 N.am    1     ****   -0.5930 
     12 H1          2.8040   -4.1660   -4.3150 H       1     ****    0.3320 
     13 H2          3.8380   -4.4620   -2.9650 H       1     ****    0.3110 
     14 H3          7.8600   -7.0520    0.2330 H       1     ****    0.0390 
     15 H4          6.7070   -5.8930   -0.4520 H       1     ****    0.0290 
     16 H5          6.3160   -6.7460    1.0490 H       1     ****    0.0490 
     17 H6          6.6770   -8.0880   -1.6960 H       1     ****    0.0480 
     18 H7          6.3030   -8.9270   -0.1990 H       1     ****    0.0710 
     19 H8          4.9790   -6.5620   -2.7340 H       1     ****    0.1430 
     20 H9          0.9230   -7.1930   -1.3570 H       1     ****    0.1680 
     21 H10         1.8740   -8.5290    0.5010 H       1     ****    0.0290 
@<TRIPOS>BOND
     1  2 1 1
     2  3 2 1
     3  4 3 ar
     4  5 4 ar
     5  6 5 ar
     6  7 6 ar
     7  8 3 ar
     8  8 7 ar
     9  9 5 1
    10 10 9 2
    11 11 9 1
    12 12 11 1
    13 13 11 1
    14 14 1 1
    15 15 1 1
    16 16 1 1
    17 17 2 1
    18 18 2 1
    19 19 4 1
    20 20 6 1
    21 21 7 1
@<TRIPOS>SUBSTRUCTURE
1     ****    1
@<TRIPOS>MOLECULE
ZINC00001444
33 35 1 0 0 
SMALL
USER_CHARGES


@<TRIPOS>ATOM
      1 C1         -0.7520   -2.6300   -7.3220 C.ar    1     ****   -0.1470 
      2 C2          0.3090   -1.8060   -6.9600 C.ar    1     ****   -0.1400 
      3 C3          1.1540   -2.1730   -5.9100 C.ar    1     ****   -0.1080 
      4 C4          0.9580   -3.3740   -5.2050 C.ar    1     ****   -0.0840 
      5 C5         -0.1220   -4.1890   -5.5810 C.ar    1     ****   -0.1340 
      6 C6         -0.9680   -3.8200   -6.6320 C.ar    1     ****   -0.1320 
      7 C7          1.8760   -3.7110   -4.1020 C.2     1     ****    0.3430 
      8 N1          2.6540   -2.8330   -3.5010 N.2     1     ****   -0.6130 
      9 C8          3.4200   -3.4440   -2.5230 C.2     1     ****    0.3060 
     10 C9          3.2060   -4.8030   -2.3620 C.2     1     ****   -0.0600 
     11 S1          2.0420   -5.3220   -3.5140 S.2     1     ****   -0.0170 
     12 C10         3.7920   -5.7900   -1.3980 C.3     1     ****   -0.1810 
     13 C11         3.2090   -5.5530   -0.0040 C.2     1     ****    0.9250 
     14 O1          2.0260   -5.9640    0.1640 O.co2   1     ****   -0.8270 
     15 C12         4.3400   -2.6500   -1.7290 C.ar    1     ****   -0.0630 
     16 C13         3.8540   -1.5570   -1.0000 C.ar    1     ****   -0.0910 
     17 C14         4.7250   -0.7750   -0.2390 C.ar    1     ****   -0.1300 
     18 C15         6.0850   -1.0800   -0.2140 C.ar    1     ****    0.0130 
     19 C16         6.5820   -2.1570   -0.9460 C.ar    1     ****   -0.1300 
     20 C17         5.7100   -2.9390   -1.7070 C.ar    1     ****   -0.1070 
     21 CL1         7.1600   -0.1150    0.7230 Cl      1     ****   -0.1350 
     22 H1         -1.4110   -2.3460   -8.1370 H       1     ****    0.1180 
     23 H2          0.4800   -0.8750   -7.4940 H       1     ****    0.1210 
     24 H3          1.9760   -1.5070   -5.6530 H       1     ****    0.1510 
     25 H4         -0.3380   -5.1200   -5.0640 H       1     ****    0.1420 
     26 H5         -1.7990   -4.4630   -6.9080 H       1     ****    0.1230 
     27 H6          3.5760   -6.8230   -1.6960 H       1     ****    0.0450 
     28 H7          4.8830   -5.7030   -1.3750 H       1     ****    0.0630 
     29 H8          2.7950   -1.3110   -1.0110 H       1     ****    0.1480 
     30 H9          4.3310    0.0650    0.3270 H       1     ****    0.1350 
     31 H10         7.6420   -2.3980   -0.9360 H       1     ****    0.1340 
     32 H11         6.1140   -3.7690   -2.2820 H       1     ****    0.1380 
     33 O2          3.9920   -4.9950    0.8160 O.co2   1     ****   -0.8060 
@<TRIPOS>BOND
     1  2 1 ar
     2  3 2 ar
     3  4 3 ar
     4  5 4 ar
     5  6 1 ar
     6  6 5 ar
     7  7 4 1
     8  8 7 2
     9  9 8 1
    10 10 9 2
    11 11 7 1
    12 11 10 1
    13 12 10 1
    14 13 12 1
    15 14 13 1
    16 15 9 1
    17 16 15 ar
    18 17 16 ar
    19 18 17 ar
    20 19 18 ar
    21 20 15 ar
    22 20 19 ar
    23 21 18 1
    24 22 1 1
    25 23 2 1
    26 24 3 1
    27 25 5 1
    28 26 6 1
    29 27 12 1
    30 28 12 1
    31 29 16 1
    32 30 17 1
    33 31 19 1
    34 32 20 1
    35 33 13 2
@<TRIPOS>SUBSTRUCTURE
1     ****    1
@<TRIPOS>MOLECULE
ZINC00001504
17 17 1 0 0 
SMALL
USER_CHARGES


@<TRIPOS>ATOM
      1 C1          3.4070   -6.6430    0.5430 C.ar    1     ****   -0.1300 
      2 C2          2.3780   -6.3220   -0.3600 C.ar    1     ****   -0.0930 
      3 C3          2.0690   -7.2380   -1.3820 C.ar    1     ****   -0.1770 
      4 C4          2.7730   -8.4390   -1.4920 C.ar    1     ****    0.0450 
      5 C5          3.7890   -8.7430   -0.5920 C.ar    1     ****   -0.0120 
      6 C6          4.1030   -7.8460    0.4210 C.ar    1     ****    0.0980 
      7 O1          5.0960   -8.1180    1.3200 O.3     1     ****   -0.5100 
      8 O2          4.4880   -9.9140   -0.6860 O.3     1     ****   -0.5350 
      9 O3          2.4810   -9.3360   -2.4810 O.3     1     ****   -0.5430 
     10 C7          1.6200   -5.0220   -0.2360 C.2     1     ****    0.9110 
     11 O4          1.9510   -4.2420    0.7110 O.co2   1     ****   -0.8200 
     12 H1          5.4650   -8.9880    1.0840 H       1     ****    0.4170 
     13 H2          4.1270  -10.4010   -1.4480 H       1     ****    0.4280 
     14 H3          1.7550   -8.9760   -3.0180 H       1     ****    0.4220 
     15 H4          3.6730   -5.9580    1.3450 H       1     ****    0.1720 
     16 H5          1.2770   -7.0140   -2.0930 H       1     ****    0.1590 
     17 O5          0.7030   -4.8000   -1.0870 O.co2   1     ****   -0.8320 
@<TRIPOS>BOND
     1  2 1 ar
     2  3 2 ar
     3  4 3 ar
     4  5 4 ar
     5  6 1 ar
     6  6 5 ar
     7  7 6 1
     8  8 5 1
     9  9 4 1
    10 10 2 1
    11 11 10 1
    12 12 7 1
    13 13 8 1
    14 14 9 1
    15 15 1 1
    16 16 3 1
    17 17 10 2
@<TRIPOS>SUBSTRUCTURE
1     ****    1
@<TRIPOS>MOLECULE
ZINC00001533
32 34 1 0 0 
SMALL
USER_CHARGES


@<TRIPOS>ATOM
      1 C1          4.9260  -11.6920    0.0410 C.ar    1     ****   -0.1920 
      2 C2          6.0980  -10.9950    0.2940 C.ar    1     ****   -0.1470 
      3 C3          6.0340   -9.7050    0.8190 C.ar    1     ****   -0.1880 
      4 C4          4.8210   -9.0830    1.0970 C.ar    1     ****    0.3930 
      5 C5          3.6220   -9.7770    0.8330 C.ar    1     ****   -0.1380 
      6 C6          3.6990  -11.0900    0.3100 C.ar    1     ****   -0.0690 
      7 C7          2.4110   -9.1090    1.1310 C.ar    1     ****   -0.0680 
      8 C8          2.4490   -7.8220    1.6800 C.ar    1     ****   -0.2440 
      9 C9          3.6770   -7.2130    1.9050 C.ar    1     ****    0.5010 
     10 N1          4.8420   -7.8410    1.6130 N.ar    1     ****   -0.6950 
     11 C10         3.8080   -5.8540    2.4680 C.ar    1     ****   -0.2180 
     12 C11         2.8840   -4.8410    2.1720 C.ar    1     ****   -0.0900 
     13 C12         3.0220   -3.5600    2.7070 C.ar    1     ****   -0.2220 
     14 C13         4.0920   -3.2650    3.5510 C.ar    1     ****    0.1770 
     15 C14         5.0480   -4.2390    3.8780 C.ar    1     ****   -0.2280 
     16 C15         4.8840   -5.5250    3.3210 C.ar    1     ****   -0.0250 
     17 C16         6.2240   -3.9590    4.7890 C.2     1     ****    0.9170 
     18 O1          7.0260   -4.9160    5.0240 O.co2   1     ****   -0.8110 
     19 O2          4.1430   -1.9820    4.0270 O.3     1     ****   -0.5630 
     20 C17         1.0660   -9.7250    0.8820 C.2     1     ****    0.9060 
     21 O3          0.2910   -9.8150    1.8830 O.co2   1     ****   -0.8210 
     22 H1          4.9300   -1.9020    4.5980 H       1     ****    0.4770 
     23 H2          4.9630  -12.6990   -0.3630 H       1     ****    0.1040 
     24 H3          7.0610  -11.4530    0.0890 H       1     ****    0.0990 
     25 H4          6.9660   -9.1760    1.0170 H       1     ****    0.1300 
     26 H5          2.7970  -11.6640    0.1090 H       1     ****    0.1750 
     27 H6          1.5190   -7.3170    1.9260 H       1     ****    0.1520 
     28 H7          2.0440   -5.0280    1.5050 H       1     ****    0.1220 
     29 H8          2.2930   -2.7940    2.4600 H       1     ****    0.1180 
     30 H9          5.6100   -6.3000    3.5650 H       1     ****    0.1680 
     31 O4          6.3290   -2.7820    5.2590 O.co2   1     ****   -0.8770 
     32 O5          0.8100  -10.0830   -0.3090 O.co2   1     ****   -0.8420 
@<TRIPOS>BOND
     1  2 1 ar
     2  3 2 ar
     3  4 3 ar
     4  5 4 ar
     5  6 1 ar
     6  6 5 ar
     7  7 5 ar
     8  8 7 ar
     9  9 8 ar
    10 10 4 ar
    11 10 9 ar
    12 11 9 1
    13 12 11 ar
    14 13 12 ar
    15 14 13 ar
    16 15 14 ar
    17 16 11 ar
    18 16 15 ar
    19 17 15 1
    20 18 17 1
    21 19 14 1
    22 20 7 1
    23 21 20 1
    24 22 19 1
    25 23 1 1
    26 24 2 1
    27 25 3 1
    28 26 6 1
    29 27 8 1
    30 28 12 1
    31 29 13 1
    32 30 16 1
    33 31 17 2
    34 32 20 2
@<TRIPOS>SUBSTRUCTURE
1     ****    1
@<TRIPOS>MOLECULE
ZINC00001546
54 58 1 0 0 
SMALL
USER_CHARGES


@<TRIPOS>ATOM
      1 C1          2.0200   -3.0590   -2.2890 C.3     1     ****   -0.0890 
      2 C2          2.0180   -2.1530   -1.0230 C.3     1     ****   -0.0270 
      3 C3          1.9530   -0.6610   -1.4650 C.3     1     ****   -0.0650 
      4 C4          0.5300   -0.0530   -1.4510 C.3     1     ****   -0.0710 
      5 C5         -0.5220   -1.1270   -1.7900 C.3     1     ****   -0.0560 
      6 C6         -0.5720   -2.1530   -0.6380 C.3     1     ****   -0.0470 
      7 C7          0.8410   -2.4350   -0.0690 C.3     1     ****   -0.0620 
      8 C8          1.1990   -3.8040    0.5160 C.3     1     ****   -0.0690 
      9 C9          2.7500   -3.7920    0.5980 C.3     1     ****   -0.1070 
     10 C10         3.2320   -2.4970   -0.1200 C.3     1     ****    0.1480 
     11 C11         4.5720   -2.6700   -0.8280 C.3     1     ****   -0.1160 
     12 O1          3.3980   -1.4740    0.8680 O.3     1     ****   -0.5980 
     13 C12        -1.3300   -3.3940   -1.1310 C.3     1     ****   -0.0690 
     14 C13        -2.7770   -3.0000   -1.4640 C.3     1     ****   -0.0450 
     15 C14        -2.8990   -1.7920   -2.3750 C.2     1     ****   -0.0670 
     16 C15        -3.8220   -1.8050   -3.3620 C.2     1     ****   -0.1170 
     17 C16        -3.9090   -0.6510   -4.1490 C.2     1     ****   -0.0800 
     18 C17        -3.0590    0.4210   -4.1550 C.2     1     ****   -0.2470 
     19 C18        -3.6130    1.2990   -5.1010 C.2     1     ****    0.3060 
     20 N1         -4.7340    0.8140   -5.6510 N.2     1     ****   -0.5190 
     21 N2         -4.8870   -0.3870   -5.0520 N.pl3   1     ****   -0.0060 
     22 C19        -1.8480    0.4390   -3.3060 C.3     1     ****    0.0080 
     23 C20        -1.9590   -0.5660   -2.0740 C.3     1     ****    0.0010 
     24 C21        -2.5540    0.2380   -0.8950 C.3     1     ****   -0.0870 
     25 H1          4.0960   -1.7590    1.4820 H       1     ****    0.3980 
     26 H2         -5.6850   -0.9560   -5.3100 H       1     ****    0.3200 
     27 H3          2.8320   -2.7710   -2.9670 H       1     ****    0.0350 
     28 H4          2.1770   -4.1140   -2.0420 H       1     ****    0.0330 
     29 H5          1.1060   -3.0250   -2.8770 H       1     ****    0.0430 
     30 H6          2.5880   -0.0220   -0.8400 H       1     ****    0.0680 
     31 H7          2.3650   -0.5600   -2.4780 H       1     ****    0.0360 
     32 H8          0.3330    0.3700   -0.4580 H       1     ****    0.0440 
     33 H9          0.5090    0.7830   -2.1570 H       1     ****    0.0410 
     34 H10        -0.1510   -1.5820   -2.7210 H       1     ****    0.0550 
     35 H11        -1.1900   -1.7880    0.2020 H       1     ****    0.0480 
     36 H12         0.8680   -1.7610    0.8130 H       1     ****    0.0640 
     37 H13         0.7480   -3.9570    1.5010 H       1     ****    0.0440 
     38 H14         0.8790   -4.6290   -0.1290 H       1     ****    0.0420 
     39 H15         3.0680   -3.8120    1.6460 H       1     ****    0.0460 
     40 H16         3.1380   -4.6940    0.1120 H       1     ****    0.0460 
     41 H17         5.3730   -2.8480   -0.1010 H       1     ****    0.0320 
     42 H18         4.5730   -3.5070   -1.5320 H       1     ****    0.0470 
     43 H19         4.8420   -1.7570   -1.3710 H       1     ****    0.0500 
     44 H20        -0.8490   -3.8330   -2.0120 H       1     ****    0.0470 
     45 H21        -1.3600   -4.1660   -0.3550 H       1     ****    0.0430 
     46 H22        -3.2810   -3.8730   -1.8980 H       1     ****    0.0450 
     47 H23        -3.3050   -2.7730   -0.5280 H       1     ****    0.0520 
     48 H24        -4.4820   -2.6490   -3.5310 H       1     ****    0.1320 
     49 H25        -3.2510    2.2660   -5.4210 H       1     ****    0.0420 
     50 H26        -1.0050    0.1510   -3.9490 H       1     ****    0.0520 
     51 H27        -1.6460    1.4590   -2.9590 H       1     ****    0.0540 
     52 H28        -3.5200    0.6780   -1.1700 H       1     ****    0.0450 
     53 H29        -2.7370   -0.3770   -0.0090 H       1     ****    0.0360 
     54 H30        -1.8990    1.0640   -0.5970 H       1     ****    0.0400 
@<TRIPOS>BOND
     1  2 1 1
     2  3 2 1
     3  4 3 1
     4  5 4 1
     5  6 5 1
     6  7 2 1
     7  7 6 1
     8  8 7 1
     9  9 8 1
    10 10 2 1
    11 10 9 1
    12 11 10 1
    13 12 10 1
    14 13 6 1
    15 14 13 1
    16 15 14 1
    17 16 15 2
    18 17 16 1
    19 18 17 ar
    20 19 18 1
    21 20 19 2
    22 21 17 1
    23 21 20 1
    24 22 18 1
    25 23 5 1
    26 23 15 1
    27 23 22 1
    28 24 23 1
    29 25 12 1
    30 26 21 1
    31 27 1 1
    32 28 1 1
    33 29 1 1
    34 30 3 1
    35 31 3 1
    36 32 4 1
    37 33 4 1
    38 34 5 1
    39 35 6 1
    40 36 7 1
    41 37 8 1
    42 38 8 1
    43 39 9 1
    44 40 9 1
    45 41 11 1
    46 42 11 1
    47 43 11 1
    48 44 13 1
    49 45 13 1
    50 46 14 1
    51 47 14 1
    52 48 16 1
    53 49 19 1
    54 50 22 1
    55 51 22 1
    56 52 24 1
    57 53 24 1
    58 54 24 1
@<TRIPOS>SUBSTRUCTURE
1     ****    1
@<TRIPOS>MOLECULE
ZINC00001551
36 38 1 0 0 
SMALL
USER_CHARGES


@<TRIPOS>ATOM
      1 C1          8.0120    3.6390    1.5700 C.ar    1     ****   -0.1080 
      2 C2          8.7670    4.6700    1.0020 C.ar    1     ****   -0.1150 
      3 C3          8.1720    5.4350    0.0230 C.ar    1     ****    0.0660 
      4 C4          6.8830    5.2000   -0.3910 C.ar    1     ****    0.0510 
      5 C5          6.1140    4.1890    0.1530 C.ar    1     ****   -0.0990 
      6 C6          6.6780    3.3940    1.1650 C.ar    1     ****   -0.0750 
      7 C7          5.9540    2.2740    1.7880 C.2     1     ****   -0.0390 
      8 C8          4.6220    2.2190    1.9340 C.2     1     ****   -0.2250 
      9 C9          4.0130    1.0460    2.6200 C.2     1     ****    0.6590 
     10 O1          4.6320    0.4860    3.5260 O.2     1     ****   -0.6110 
     11 N1          2.7400    0.6680    2.1960 N.am    1     ****   -0.4600 
     12 C10         2.0310    1.1760    1.0130 C.3     1     ****    0.0920 
     13 C11         0.6600    1.7200    1.4070 C.3     1     ****   -0.1030 
     14 C12        -0.1480    0.6700    2.1700 C.3     1     ****   -0.0780 
     15 C13         0.6430    0.1190    3.3570 C.3     1     ****   -0.1020 
     16 C14         2.0210   -0.3780    2.9250 C.3     1     ****    0.0830 
     17 O2          6.4900    6.0590   -1.3700 O.3     1     ****   -0.3350 
     18 C15         7.6770    6.8640   -1.5220 C.3     1     ****    0.3210 
     19 O3          8.7500    6.4720   -0.6420 O.3     1     ****   -0.3320 
     20 H1          8.4710    3.0250    2.3430 H       1     ****    0.1460 
     21 H2          9.7860    4.8550    1.3220 H       1     ****    0.1590 
     22 H3          5.1060    4.0240   -0.2130 H       1     ****    0.1550 
     23 H4          6.5770    1.4600    2.1550 H       1     ****    0.1510 
     24 H5          3.9730    3.0270    1.6220 H       1     ****    0.1400 
     25 H6          2.6000    1.9380    0.4790 H       1     ****    0.0530 
     26 H7          1.9170    0.3310    0.3220 H       1     ****    0.0460 
     27 H8          0.7880    2.6070    2.0400 H       1     ****    0.0480 
     28 H9          0.1120    2.0330    0.5120 H       1     ****    0.0490 
     29 H10        -1.0890    1.1080    2.5210 H       1     ****    0.0440 
     30 H11        -0.4090   -0.1530    1.4920 H       1     ****    0.0410 
     31 H12         0.7620    0.9120    4.1060 H       1     ****    0.0500 
     32 H13         0.0840   -0.6950    3.8310 H       1     ****    0.0510 
     33 H14         1.9280   -1.2420    2.2570 H       1     ****    0.0430 
     34 H15         2.5860   -0.7030    3.8050 H       1     ****    0.0870 
     35 H16         8.0260    6.7830   -2.5580 H       1     ****    0.0740 
     36 H17         7.4200    7.9100   -1.3180 H       1     ****    0.0740 
@<TRIPOS>BOND
     1  2 1 ar
     2  3 2 ar
     3  4 3 ar
     4  5 4 ar
     5  6 1 ar
     6  6 5 ar
     7  7 6 1
     8  8 7 2
     9  9 8 1
    10 10 9 2
    11 11 9 1
    12 12 11 1
    13 13 12 1
    14 14 13 1
    15 15 14 1
    16 16 11 1
    17 16 15 1
    18 17 4 1
    19 18 17 1
    20 19 3 1
    21 19 18 1
    22 20 1 1
    23 21 2 1
    24 22 5 1
    25 23 7 1
    26 24 8 1
    27 25 12 1
    28 26 12 1
    29 27 13 1
    30 28 13 1
    31 29 14 1
    32 30 14 1
    33 31 15 1
    34 32 15 1
    35 33 16 1
    36 34 16 1
    37 35 18 1
    38 36 18 1
@<TRIPOS>SUBSTRUCTURE
1     ****    1
@<TRIPOS>MOLECULE
ZINC00001584
34 36 1 0 0 
SMALL
USER_CHARGES


@<TRIPOS>ATOM
      1 C1          7.1200   -8.4300   -0.2770 C.3     1     ****   -0.1080 
      2 C2          6.7150   -7.3950    0.7640 C.3     1     ****    0.2240 
      3 N1          5.7770   -7.8610    1.8070 N.pl3   1     ****   -0.5310 
      4 C3          5.2100   -9.1250    1.8490 C.2     1     ****    0.0630 
      5 C4          4.3720   -9.6030    2.7760 C.2     1     ****   -0.2670 
      6 C5          3.9990   -8.6990    3.8900 C.2     1     ****    0.5980 
      7 O1          3.2840   -9.0680    4.8130 O.2     1     ****   -0.5430 
      8 C6          4.5470   -7.3200    3.8560 C.ar    1     ****   -0.2020 
      9 C7          5.4210   -6.9260    2.8230 C.ar    1     ****    0.2100 
     10 C8          5.9010   -5.5950    2.8600 C.ar    1     ****   -0.2240 
     11 C9          5.5380   -4.6880    3.8770 C.ar    1     ****    0.0240 
     12 C10         4.6680   -5.1310    4.8760 C.ar    1     ****    0.0300 
     13 C11         4.1750   -6.4330    4.8710 C.ar    1     ****   -0.0620 
     14 F1          4.2370   -4.3290    5.8590 F       1     ****   -0.1510 
     15 N2          6.0590   -3.3530    3.8670 N.pl3   1     ****    0.0100 
     16 C12         6.7610   -2.7530    2.8320 C.2     1     ****   -0.1590 
     17 C13         7.0960   -1.4660    3.1900 C.2     1     ****   -0.2020 
     18 C14         6.5970   -1.2510    4.4860 C.2     1     ****   -0.2120 
     19 C15         5.9720   -2.4140    4.8810 C.2     1     ****   -0.1360 
     20 C16         3.8210  -11.0270    2.6480 C.2     1     ****    0.9300 
     21 O2          2.6000  -11.1670    2.9430 O.co2   1     ****   -0.7890 
     22 H1          7.8350   -7.9900   -0.9810 H       1     ****    0.0330 
     23 H2          7.6030   -9.2970    0.1860 H       1     ****    0.0600 
     24 H3          6.2580   -8.7740   -0.8580 H       1     ****    0.0550 
     25 H4          7.6410   -7.0480    1.2410 H       1     ****    0.0350 
     26 H5          6.2670   -6.5490    0.2270 H       1     ****    0.0310 
     27 H6          5.4920   -9.7640    1.0200 H       1     ****    0.1790 
     28 H7          6.5870   -5.2730    2.0850 H       1     ****    0.1390 
     29 H8          3.4950   -6.7360    5.6630 H       1     ****    0.1740 
     30 H9          6.9610   -3.2630    1.9010 H       1     ****    0.1650 
     31 H10         7.6400   -0.7640    2.5730 H       1     ****    0.1430 
     32 H11         6.6850   -0.3530    5.0800 H       1     ****    0.1450 
     33 H12         5.4970   -2.6260    5.8260 H       1     ****    0.1780 
     34 O3          4.6470  -11.9000    2.2490 O.co2   1     ****   -0.8410 
@<TRIPOS>BOND
     1  2 1 1
     2  3 2 1
     3  4 3 1
     4  5 4 2
     5  6 5 1
     6  7 6 2
     7  8 6 1
     8  9 3 1
     9  9 8 ar
    10 10 9 ar
    11 11 10 ar
    12 12 11 ar
    13 13 8 ar
    14 13 12 ar
    15 14 12 1
    16 15 11 1
    17 16 15 1
    18 17 16 2
    19 18 17 1
    20 19 15 1
    21 19 18 2
    22 20 5 1
    23 21 20 1
    24 22 1 1
    25 23 1 1
    26 24 1 1
    27 25 2 1
    28 26 2 1
    29 27 4 1
    30 28 10 1
    31 29 13 1
    32 30 16 1
    33 31 17 1
    34 32 18 1
    35 33 19 1
    36 34 20 2
@<TRIPOS>SUBSTRUCTURE
1     ****    1
@<TRIPOS>MOLECULE
ZINC00001629
28 29 1 0 0 
SMALL
USER_CHARGES


@<TRIPOS>ATOM
      1 C1          5.2410   -8.9510    2.6650 C.ar    1     ****   -0.1530 
      2 C2          5.7390  -10.2130    2.3380 C.ar    1     ****   -0.1430 
      3 C3          6.6070  -10.3440    1.2630 C.ar    1     ****    0.1090 
      4 C4          6.9730   -9.2380    0.5070 C.ar    1     ****   -0.1420 
      5 C5          6.4720   -7.9740    0.8370 C.ar    1     ****   -0.1220 
      6 C6          5.6180   -7.8110    1.9330 C.ar    1     ****    0.0490 
      7 N1          5.0400   -6.5820    2.3420 N.am    1     ****   -0.4300 
      8 C7          5.3730   -5.2410    2.0570 C.2     1     ****    0.5840 
      9 S1          6.8400   -4.7020    1.4400 S.2     1     ****   -0.5100 
     10 N2          4.3050   -4.4190    2.4750 N.am    1     ****   -0.4380 
     11 C8          3.9990   -3.0590    2.2120 C.ar    1     ****    0.0910 
     12 C9          4.5160   -2.3120    1.1500 C.ar    1     ****   -0.1510 
     13 C10         4.1300   -0.9780    0.9720 C.ar    1     ****    0.0490 
     14 C11         3.2170   -0.3750    1.8330 C.ar    1     ****   -0.1430 
     15 C12         2.6780   -1.1250    2.8730 C.ar    1     ****    0.0490 
     16 C13         3.0550   -2.4570    3.0590 C.ar    1     ****   -0.1830 
     17 CL1         1.5330   -0.4050    3.9400 Cl      1     ****   -0.0820 
     18 CL2         4.7800   -0.0740   -0.3440 Cl      1     ****   -0.0740 
     19 F1          7.0860  -11.5530    0.9420 F       1     ****   -0.1380 
     20 H1          4.2730   -6.6960    2.9970 H       1     ****    0.3090 
     21 H2          3.6610   -4.8610    3.1240 H       1     ****    0.3100 
     22 H3          4.5620   -8.8650    3.5110 H       1     ****    0.1330 
     23 H4          5.4510  -11.0840    2.9180 H       1     ****    0.1520 
     24 H5          7.6340   -9.3560   -0.3460 H       1     ****    0.1560 
     25 H6          6.7400   -7.1530    0.1840 H       1     ****    0.1970 
     26 H7          5.1830   -2.7510    0.4170 H       1     ****    0.2080 
     27 H8          2.9220    0.6610    1.6870 H       1     ****    0.1650 
     28 H9          2.6210   -3.0240    3.8810 H       1     ****    0.1460 
@<TRIPOS>BOND
     1  2 1 ar
     2  3 2 ar
     3  4 3 ar
     4  5 4 ar
     5  6 1 ar
     6  6 5 ar
     7  7 6 1
     8  8 7 1
     9  9 8 2
    10 10 8 1
    11 11 10 1
    12 12 11 ar
    13 13 12 ar
    14 14 13 ar
    15 15 14 ar
    16 16 11 ar
    17 16 15 ar
    18 17 15 1
    19 18 13 1
    20 19 3 1
    21 20 7 1
    22 21 10 1
    23 22 1 1
    24 23 2 1
    25 24 4 1
    26 25 5 1
    27 26 12 1
    28 27 14 1
    29 28 16 1
@<TRIPOS>SUBSTRUCTURE
1     ****    1
@<TRIPOS>MOLECULE
ZINC00001631
34 36 1 0 0 
SMALL
USER_CHARGES


@<TRIPOS>ATOM
      1 C1          6.1110  -10.3250   -1.0600 C.ar    1     ****   -0.1670 
      2 C2          5.6900   -9.0030   -1.1830 C.ar    1     ****   -0.1180 
      3 C3          5.5520   -8.2020   -0.0470 C.ar    1     ****   -0.1460 
      4 C4          5.8370   -8.7240    1.2240 C.ar    1     ****    0.0680 
      5 C5          6.2600  -10.0540    1.3410 C.ar    1     ****   -0.1650 
      6 C6          6.3950  -10.8480    0.1990 C.ar    1     ****   -0.1120 
      7 N1          5.6930   -7.8970    2.3720 N.pl3   1     ****    0.1350 
      8 C7          5.9230   -8.2290    3.6870 C.2     1     ****   -0.1610 
      9 C8          5.6450   -7.1150    4.4520 C.2     1     ****   -0.1260 
     10 C9          5.2580   -6.1260    3.5020 C.2     1     ****    0.3550 
     11 N2          5.2820   -6.6130    2.2530 N.2     1     ****   -0.5230 
     12 C10         4.8550   -4.7450    3.7380 C.ar    1     ****   -0.0780 
     13 C11         3.6340   -4.2760    3.2350 C.ar    1     ****   -0.0920 
     14 C12         3.2400   -2.9540    3.4560 C.ar    1     ****   -0.1320 
     15 C13         4.0700   -2.0980    4.1770 C.ar    1     ****    0.0190 
     16 C14         5.2900   -2.5500    4.6760 C.ar    1     ****   -0.1260 
     17 C15         5.6830   -3.8720    4.4550 C.ar    1     ****   -0.0900 
     18 CL1         3.5860   -0.4680    4.4500 Cl      1     ****   -0.1340 
     19 C16         5.7270   -7.0260    5.9350 C.3     1     ****   -0.1620 
     20 C17         4.3180   -7.0620    6.5200 C.2     1     ****    0.9230 
     21 O1          3.7920   -8.2090    6.5920 O.co2   1     ****   -0.8350 
     22 H1          6.2170  -10.9460   -1.9450 H       1     ****    0.1220 
     23 H2          5.4670   -8.5930   -2.1640 H       1     ****    0.1240 
     24 H3          5.2210   -7.1750   -0.1830 H       1     ****    0.1570 
     25 H4          6.4930  -10.5080    2.2990 H       1     ****    0.1440 
     26 H5          6.7230  -11.8800    0.2940 H       1     ****    0.1250 
     27 H6          6.2490   -9.2120    3.9930 H       1     ****    0.1820 
     28 H7          2.9750   -4.9350    2.6740 H       1     ****    0.1450 
     29 H8          2.2870   -2.6090    3.0630 H       1     ****    0.1340 
     30 H9          5.9440   -1.8860    5.2360 H       1     ****    0.1360 
     31 H10         6.6430   -4.2050    4.8410 H       1     ****    0.1440 
     32 H11         6.3020   -7.8680    6.3420 H       1     ****    0.0360 
     33 H12         6.2490   -6.1160    6.2470 H       1     ****    0.0430 
     34 O2          3.8570   -5.9420    6.8810 O.co2   1     ****   -0.8250 
@<TRIPOS>BOND
     1  2 1 ar
     2  3 2 ar
     3  4 3 ar
     4  5 4 ar
     5  6 1 ar
     6  6 5 ar
     7  7 4 1
     8  8 7 1
     9  9 8 2
    10 10 9 1
    11 11 7 1
    12 11 10 2
    13 12 10 1
    14 13 12 ar
    15 14 13 ar
    16 15 14 ar
    17 16 15 ar
    18 17 12 ar
    19 17 16 ar
    20 18 15 1
    21 19 9 1
    22 20 19 1
    23 21 20 1
    24 22 1 1
    25 23 2 1
    26 24 3 1
    27 25 5 1
    28 26 6 1
    29 27 8 1
    30 28 13 1
    31 29 14 1
    32 30 16 1
    33 31 17 1
    34 32 19 1
    35 33 19 1
    36 34 20 2
@<TRIPOS>SUBSTRUCTURE
1     ****    1
@<TRIPOS>MOLECULE
ZINC00001644
23 23 1 0 0 
SMALL
USER_CHARGES


@<TRIPOS>ATOM
      1 C1          4.1550   -8.2040   -1.0100 C.ar    1     ****   -0.1240 
      2 C2          3.1420   -7.4110   -1.5530 C.ar    1     ****   -0.0190 
      3 C3          2.3850   -6.5970   -0.7110 C.ar    1     ****   -0.2950 
      4 C4          2.6350   -6.5560    0.6600 C.ar    1     ****   -0.0170 
      5 C5          3.6490   -7.3520    1.1950 C.ar    1     ****   -0.1240 
      6 C6          4.4230   -8.1760    0.3660 C.ar    1     ****   -0.1510 
      7 C7          5.4980   -9.0460    0.9480 C.3     1     ****    0.1650 
      8 S1          1.1270   -5.5630   -1.3990 S.o2    1     ****    1.5180 
      9 O1          0.9230   -4.4490   -0.4940 O.3     1     ****   -0.6320 
     10 O2          1.4540   -5.3380   -2.7920 O.3     1     ****   -0.6340 
     11 N1         -0.2300   -6.5960   -1.3080 N.3     1     ****   -1.0320 
     12 H1          5.7540  -10.9600    1.7440 H       1     ****    0.4600 
     13 H2          4.2600  -10.3140    2.0600 H       1     ****    0.4600 
     14 H3         -0.9590   -6.2920   -0.6510 H       1     ****    0.4610 
     15 H4         -0.0330   -7.5980   -1.2030 H       1     ****    0.4600 
     16 H5          4.7370   -8.8410   -1.6720 H       1     ****    0.1460 
     17 H6          2.9580   -7.4460   -2.6230 H       1     ****    0.1820 
     18 H7          2.0540   -5.9220    1.3230 H       1     ****    0.1780 
     19 H8          3.8340   -7.3200    2.2670 H       1     ****    0.1460 
     20 H9          6.3070   -9.2120    0.2290 H       1     ****    0.1190 
     21 H10         5.9350   -8.5910    1.8440 H       1     ****    0.1180 
     22 N2          4.9990  -10.3850    1.3480 N.4     1     ****   -0.8430 
     23 H11         4.6090  -10.8970    0.5460 H       1     ****    0.4600 
@<TRIPOS>BOND
     1  2 1 ar
     2  3 2 ar
     3  4 3 ar
     4  5 4 ar
     5  6 1 ar
     6  6 5 ar
     7  7 6 1
     8  8 3 1
     9  9 8 1
    10 10 8 1
    11 11 8 1
    12 14 11 1
    13 15 11 1
    14 16 1 1
    15 17 2 1
    16 18 4 1
    17 19 5 1
    18 20 7 1
    19 21 7 1
    20 22 7 1
    21 22 12 1
    22 22 13 1
    23 23 22 1
@<TRIPOS>SUBSTRUCTURE
1     ****    1
@<TRIPOS>MOLECULE
ZINC00001655
29 30 1 0 0 
SMALL
USER_CHARGES


@<TRIPOS>ATOM
      1 C1          6.5150   -9.5520    3.2570 C.3     1     ****   -0.0500 
      2 C2          6.2390   -8.5260    2.1930 C.ar    1     ****   -0.0510 
      3 C3          6.2990   -8.9110    0.8490 C.ar    1     ****   -0.1750 
      4 C4          6.0580   -7.9880   -0.1660 C.ar    1     ****   -0.1040 
      5 C5          5.7430   -6.6630    0.1460 C.ar    1     ****   -0.0350 
      6 C6          5.6540   -6.2370    1.4850 C.ar    1     ****    0.2250 
      7 C7          5.9170   -7.1890    2.5000 C.ar    1     ****   -0.0440 
      8 CL1         5.8250   -6.6940    4.1670 Cl      1     ****   -0.0870 
      9 N1          5.2820   -4.9260    1.8480 N.pl3   1     ****   -0.6500 
     10 C8          4.1470   -4.1500    1.5140 C.ar    1     ****    0.1900 
     11 C9          3.0300   -4.7300    0.8820 C.ar    1     ****   -0.2060 
     12 C10         1.9310   -3.9600    0.5010 C.ar    1     ****   -0.1240 
     13 C11         1.9270   -2.5920    0.7390 C.ar    1     ****   -0.1910 
     14 C12         3.0220   -1.9950    1.3610 C.ar    1     ****   -0.0850 
     15 C13         4.1400   -2.7540    1.7570 C.ar    1     ****   -0.1580 
     16 C14         5.2920   -2.0430    2.4310 C.2     1     ****    0.9150 
     17 O1          5.9770   -2.7070    3.2720 O.co2   1     ****   -0.8480 
     18 CL2         5.5760   -5.5660   -1.1860 Cl      1     ****   -0.0810 
     19 H1          5.8130   -4.5430    2.6290 H       1     ****    0.5080 
     20 H2          6.7540  -10.5290    2.8220 H       1     ****    0.0310 
     21 H3          7.3710   -9.2490    3.8680 H       1     ****    0.0500 
     22 H4          5.6360   -9.6860    3.8950 H       1     ****    0.0480 
     23 H5          6.5440   -9.9350    0.5780 H       1     ****    0.1240 
     24 H6          6.1350   -8.3120   -1.2020 H       1     ****    0.1330 
     25 H7          2.9950   -5.7990    0.6890 H       1     ****    0.1170 
     26 H8          1.0790   -4.4310    0.0200 H       1     ****    0.1030 
     27 H9          1.0740   -1.9890    0.4430 H       1     ****    0.1070 
     28 H10         2.9950   -0.9220    1.5420 H       1     ****    0.1490 
     29 O2          5.4850   -0.8280    2.1130 O.co2   1     ****   -0.8120 
@<TRIPOS>BOND
     1  2 1 1
     2  3 2 ar
     3  4 3 ar
     4  5 4 ar
     5  6 5 ar
     6  7 2 ar
     7  7 6 ar
     8  8 7 1
     9  9 6 1
    10 10 9 1
    11 11 10 ar
    12 12 11 ar
    13 13 12 ar
    14 14 13 ar
    15 15 10 ar
    16 15 14 ar
    17 16 15 1
    18 17 16 1
    19 18 5 1
    20 19 9 1
    21 20 1 1
    22 21 1 1
    23 22 1 1
    24 23 3 1
    25 24 4 1
    26 25 11 1
    27 26 12 1
    28 27 13 1
    29 28 14 1
    30 29 16 2
@<TRIPOS>SUBSTRUCTURE
1     ****    1
@<TRIPOS>MOLECULE
ZINC00001658
28 29 1 0 0 
SMALL
USER_CHARGES


@<TRIPOS>ATOM
      1 C1          2.6810   -2.0610    1.2430 C.ar    1     ****   -0.2220 
      2 C2          2.3980   -3.4120    1.4630 C.ar    1     ****   -0.0160 
      3 C3          1.8260   -4.1850    0.4490 C.ar    1     ****   -0.1800 
      4 C4          1.5250   -3.5900   -0.7790 C.ar    1     ****   -0.0050 
      5 C5          1.8110   -2.2380   -0.9930 C.ar    1     ****   -0.2190 
      6 C6          2.4020   -1.4620    0.0100 C.ar    1     ****    0.1920 
      7 N1          2.6600   -0.1160   -0.1970 N.pl3   1     ****   -0.8360 
      8 S1          1.4620   -5.9280    0.7670 S.o     1     ****    0.3860 
      9 O1          0.4910   -6.3420   -0.2990 O.3     1     ****   -0.5250 
     10 C7          3.0840   -6.4910    0.1980 C.ar    1     ****   -0.1790 
     11 C8          4.1320   -6.5910    1.1170 C.ar    1     ****   -0.0170 
     12 C9          5.3920   -7.0300    0.7010 C.ar    1     ****   -0.2210 
     13 C10         5.6270   -7.3730   -0.6350 C.ar    1     ****    0.1910 
     14 C11         4.5670   -7.2900   -1.5440 C.ar    1     ****   -0.2190 
     15 C12         3.3050   -6.8510   -1.1350 C.ar    1     ****   -0.0050 
     16 N2          6.8710   -7.8340   -1.0390 N.pl3   1     ****   -0.8340 
     17 H1          2.5020    0.3000   -1.1060 H       1     ****    0.4040 
     18 H2          3.1320    0.4280    0.5120 H       1     ****    0.4020 
     19 H3          7.6460   -7.8450   -0.3900 H       1     ****    0.4010 
     20 H4          7.0490   -8.0330   -2.0140 H       1     ****    0.4030 
     21 H5          3.1240   -1.4780    2.0470 H       1     ****    0.1320 
     22 H6          2.6270   -3.8460    2.4330 H       1     ****    0.1220 
     23 H7          1.0700   -4.1630   -1.5830 H       1     ****    0.1610 
     24 H8          1.5670   -1.7950   -1.9560 H       1     ****    0.1350 
     25 H9          3.9840   -6.3320    2.1620 H       1     ****    0.1220 
     26 H10         6.1930   -7.1030    1.4340 H       1     ****    0.1320 
     27 H11         4.7160   -7.5660   -2.5850 H       1     ****    0.1350 
     28 H12         2.5060   -6.7950   -1.8700 H       1     ****    0.1610 
@<TRIPOS>BOND
     1  2 1 ar
     2  3 2 ar
     3  4 3 ar
     4  5 4 ar
     5  6 1 ar
     6  6 5 ar
     7  7 6 1
     8  8 3 1
     9  9 8 1
    10 10 8 1
    11 11 10 ar
    12 12 11 ar
    13 13 12 ar
    14 14 13 ar
    15 15 10 ar
    16 15 14 ar
    17 16 13 1
    18 17 7 1
    19 18 7 1
    20 19 16 1
    21 20 16 1
    22 21 1 1
    23 22 2 1
    24 23 4 1
    25 24 5 1
    26 25 11 1
    27 26 12 1
    28 27 14 1
    29 28 15 1
@<TRIPOS>SUBSTRUCTURE
1     ****    1
@<TRIPOS>MOLECULE
ZINC00001691
20 20 1 0 0 
SMALL
USER_CHARGES


@<TRIPOS>ATOM
      1 C1          5.0270  -10.1440   -3.1910 C.3     1     ****   -0.1790 
      2 C2          4.7400   -9.2670   -1.9980 C.2     1     ****    0.6670 
      3 O1          4.9110   -9.6830   -0.8560 O.2     1     ****   -0.5850 
      4 N1          4.2880   -8.0150   -2.3910 N.am    1     ****   -0.4750 
      5 C3          3.9210   -6.9320   -1.5580 C.ar    1     ****    0.1060 
      6 C4          3.9620   -6.9660   -0.1600 C.ar    1     ****   -0.1910 
      7 C5          3.5800   -5.8460    0.5870 C.ar    1     ****   -0.0670 
      8 C6          3.1550   -4.6830   -0.0510 C.ar    1     ****   -0.2400 
      9 C7          3.1140   -4.6480   -1.4400 C.ar    1     ****    0.1500 
     10 C8          3.4920   -5.7590   -2.1940 C.ar    1     ****   -0.2210 
     11 O2          2.7030   -3.5280   -2.1060 O.3     1     ****   -0.5010 
     12 H1          4.2070   -7.8450   -3.3900 H       1     ****    0.3160 
     13 H2          2.4750   -2.8450   -1.4520 H       1     ****    0.4200 
     14 H3          5.3800  -11.1230   -2.8540 H       1     ****    0.0820 
     15 H4          4.1150  -10.2810   -3.7790 H       1     ****    0.0630 
     16 H5          5.7990   -9.6840   -3.8140 H       1     ****    0.0620 
     17 H6          4.2850   -7.8440    0.3880 H       1     ****    0.1750 
     18 H7          3.6160   -5.8850    1.6730 H       1     ****    0.1360 
     19 H8          2.8620   -3.8220    0.5420 H       1     ****    0.1350 
     20 H9          3.4500   -5.7010   -3.2800 H       1     ****    0.1460 
@<TRIPOS>BOND
     1  2 1 1
     2  3 2 2
     3  4 2 1
     4  5 4 1
     5  6 5 ar
     6  7 6 ar
     7  8 7 ar
     8  9 8 ar
     9 10 5 ar
    10 10 9 ar
    11 11 9 1
    12 12 4 1
    13 13 11 1
    14 14 1 1
    15 15 1 1
    16 16 1 1
    17 17 6 1
    18 18 7 1
    19 19 8 1
    20 20 10 1
@<TRIPOS>SUBSTRUCTURE
1     ****    1
@<TRIPOS>MOLECULE
ZINC00001712
19 19 1 0 0 
SMALL
USER_CHARGES


@<TRIPOS>ATOM
      1 C1          6.6230   -9.3610   -0.9040 C.3     1     ****    0.1290 
      2 O1          5.6550   -8.3080   -0.8860 O.3     1     ****   -0.4430 
      3 C2          4.8870   -8.2050   -2.0000 C.2     1     ****    0.6500 
      4 O2          4.9510   -8.9180   -2.9900 O.2     1     ****   -0.5470 
      5 C3          3.9240   -7.0820   -1.8650 C.ar    1     ****   -0.1740 
      6 C4          3.8670   -6.2760   -0.7190 C.ar    1     ****   -0.0280 
      7 C5          2.9420   -5.2310   -0.6420 C.ar    1     ****   -0.2350 
      8 C6          2.0780   -4.9950   -1.7080 C.ar    1     ****    0.1590 
      9 C7          2.1250   -5.7870   -2.8500 C.ar    1     ****   -0.1750 
     10 C8          3.0470   -6.8320   -2.9300 C.ar    1     ****   -0.0390 
     11 O3          1.1630   -3.9810   -1.6630 O.3     1     ****   -0.4900 
     12 H1          1.2510   -3.5210   -0.8100 H       1     ****    0.4250 
     13 H2          7.1710   -9.3360    0.0420 H       1     ****    0.0610 
     14 H3          6.1260  -10.3320   -0.9950 H       1     ****    0.0460 
     15 H4          7.3320   -9.2110   -1.7240 H       1     ****    0.0460 
     16 H5          4.5300   -6.4400    0.1260 H       1     ****    0.1570 
     17 H6          2.9080   -4.6140    0.2520 H       1     ****    0.1410 
     18 H7          1.4480   -5.5990   -3.6800 H       1     ****    0.1590 
     19 H8          3.0700   -7.4410   -3.8300 H       1     ****    0.1610 
@<TRIPOS>BOND
     1  2 1 1
     2  3 2 1
     3  4 3 2
     4  5 3 1
     5  6 5 ar
     6  7 6 ar
     7  8 7 ar
     8  9 8 ar
     9 10 5 ar
    10 10 9 ar
    11 11 8 1
    12 12 11 1
    13 13 1 1
    14 14 1 1
    15 15 1 1
    16 16 6 1
    17 17 7 1
    18 18 9 1
    19 19 10 1
@<TRIPOS>SUBSTRUCTURE
1     ****    1
@<TRIPOS>MOLECULE
ZINC00001723
27 28 1 0 0 
SMALL
USER_CHARGES


@<TRIPOS>ATOM
      1 C1          6.3890   -5.6630    1.2820 C.3     1     ****   -0.1580 
      2 C2          5.2930   -6.4080    0.5730 C.ar    1     ****    0.5310 
      3 C3          4.1320   -5.7700    0.1310 C.ar    1     ****   -0.4200 
      4 C4          3.2020   -6.5920   -0.5140 C.ar    1     ****    0.7310 
      5 N1          3.4060   -7.9200   -0.6720 N.ar    1     ****   -0.8240 
      6 C5          4.5560   -8.4490   -0.2150 C.ar    1     ****    0.9110 
      7 N2          5.5120   -7.7320    0.4020 N.ar    1     ****   -0.7870 
      8 N3          4.7660   -9.8030   -0.3890 N.pl3   1     ****   -0.9320 
      9 N4          1.9870   -6.0810   -0.9660 N.pl3   1     ****   -0.9470 
     10 C6          3.9020   -4.3330    0.3340 C.ar    1     ****   -0.0040 
     11 C7          3.1830   -3.8730    1.4470 C.ar    1     ****   -0.1110 
     12 C8          2.9620   -2.5080    1.6390 C.ar    1     ****   -0.1220 
     13 C9          3.4560   -1.5800    0.7200 C.ar    1     ****    0.0160 
     14 C10         4.1720   -2.0230   -0.3960 C.ar    1     ****    0.0130 
     15 C11         4.3920   -3.3920   -0.5860 C.ar    1     ****   -0.1170 
     16 CL1         4.8110   -0.9310   -1.5730 Cl      1     ****   -0.0700 
     17 CL2         3.1490    0.0940    1.0150 Cl      1     ****   -0.0680 
     18 H1          4.0610  -10.3610   -0.8480 H       1     ****    0.4290 
     19 H2          5.6210  -10.2210   -0.0530 H       1     ****    0.4310 
     20 H3          1.9380   -5.1180   -1.2710 H       1     ****    0.4260 
     21 H4          1.3560   -6.7410   -1.4030 H       1     ****    0.4290 
     22 H5          6.0100   -5.1990    2.1970 H       1     ****    0.0580 
     23 H6          7.1990   -6.3430    1.5660 H       1     ****    0.0660 
     24 H7          6.8150   -4.8940    0.6300 H       1     ****    0.0590 
     25 H8          2.7890   -4.5790    2.1760 H       1     ****    0.1500 
     26 H9          2.4020   -2.1820    2.5130 H       1     ****    0.1530 
     27 H10         4.9500   -3.7340   -1.4570 H       1     ****    0.1570 
@<TRIPOS>BOND
     1  2 1 1
     2  3 2 ar
     3  4 3 ar
     4  5 4 ar
     5  6 5 ar
     6  7 2 ar
     7  7 6 ar
     8  8 6 1
     9  9 4 1
    10 10 3 1
    11 11 10 ar
    12 12 11 ar
    13 13 12 ar
    14 14 13 ar
    15 15 10 ar
    16 15 14 ar
    17 16 14 1
    18 17 13 1
    19 18 8 1
    20 19 8 1
    21 20 9 1
    22 21 9 1
    23 22 1 1
    24 23 1 1
    25 24 1 1
    26 25 11 1
    27 26 12 1
    28 27 15 1
@<TRIPOS>SUBSTRUCTURE
1     ****    1
@<TRIPOS>MOLECULE
ZINC00001748
27 28 1 0 0 
SMALL
USER_CHARGES


@<TRIPOS>ATOM
      1 C1          5.1450   -8.9860    0.2080 C.ar    1     ****   -0.1190 
      2 C2          5.3280   -8.0320   -0.7920 C.ar    1     ****   -0.1350 
      3 C3          4.3310   -7.0910   -1.0520 C.ar    1     ****   -0.1050 
      4 C4          3.1360   -7.1010   -0.3190 C.ar    1     ****   -0.0960 
      5 C5          2.9670   -8.0570    0.6920 C.ar    1     ****   -0.1040 
      6 C6          3.9650   -8.9970    0.9500 C.ar    1     ****   -0.1350 
      7 C7          2.0700   -6.0710   -0.5820 C.3     1     ****    0.1760 
      8 O1          2.3350   -4.9440    0.2500 O.3     1     ****   -0.3240 
      9 C8          1.4700   -3.8860    0.1600 C.ar    1     ****    0.0920 
     10 C9          0.3510   -3.8110   -0.6740 C.ar    1     ****   -0.1720 
     11 C10        -0.4530   -2.6680   -0.6690 C.ar    1     ****   -0.1230 
     12 C11        -0.1370   -1.6020    0.1680 C.ar    1     ****    0.0880 
     13 C12         0.9740   -1.6620    1.0040 C.ar    1     ****   -0.1790 
     14 C13         1.7750   -2.8050    0.9970 C.ar    1     ****   -0.1190 
     15 O2         -0.9450   -0.5010    0.1460 O.3     1     ****   -0.4990 
     16 H1         -0.5980    0.1510    0.7790 H       1     ****    0.4170 
     17 H2          5.9220   -9.7170    0.4100 H       1     ****    0.1320 
     18 H3          6.2490   -8.0190   -1.3670 H       1     ****    0.1330 
     19 H4          4.4910   -6.3480   -1.8300 H       1     ****    0.1350 
     20 H5          2.0550   -8.0740    1.2850 H       1     ****    0.1360 
     21 H6          3.8240   -9.7370    1.7330 H       1     ****    0.1330 
     22 H7          2.0940   -5.7850   -1.6420 H       1     ****    0.0440 
     23 H8          1.0860   -6.5000   -0.3530 H       1     ****    0.0440 
     24 H9          0.0740   -4.6230   -1.3400 H       1     ****    0.1390 
     25 H10        -1.3220   -2.6160   -1.3200 H       1     ****    0.1510 
     26 H11         1.2270   -0.8350    1.6600 H       1     ****    0.1360 
     27 H12         2.6430   -2.8510    1.6510 H       1     ****    0.1520 
@<TRIPOS>BOND
     1  2 1 ar
     2  3 2 ar
     3  4 3 ar
     4  5 4 ar
     5  6 1 ar
     6  6 5 ar
     7  7 4 1
     8  8 7 1
     9  9 8 1
    10 10 9 ar
    11 11 10 ar
    12 12 11 ar
    13 13 12 ar
    14 14 9 ar
    15 14 13 ar
    16 15 12 1
    17 16 15 1
    18 17 1 1
    19 18 2 1
    20 19 3 1
    21 20 5 1
    22 21 6 1
    23 22 7 1
    24 23 7 1
    25 24 10 1
    26 25 11 1
    27 26 13 1
    28 27 14 1
@<TRIPOS>SUBSTRUCTURE
1     ****    1
@<TRIPOS>MOLECULE
ZINC00001760
27 28 1 0 0 
SMALL
USER_CHARGES


@<TRIPOS>ATOM
      1 C1          5.3890  -10.2860   -0.7110 C.ar    1     ****   -0.1520 
      2 C2          6.3700  -10.2050    0.2720 C.ar    1     ****   -0.1020 
      3 C3          6.4560   -9.0690    1.0800 C.ar    1     ****   -0.1760 
      4 C4          5.5630   -8.0010    0.9120 C.ar    1     ****    0.0710 
      5 C5          4.5810   -8.0920   -0.0790 C.ar    1     ****   -0.1580 
      6 C6          4.4960   -9.2310   -0.8860 C.ar    1     ****   -0.1010 
      7 N1          5.7220   -6.8920    1.7720 N.am    1     ****   -0.4440 
      8 C7          4.9790   -5.7300    1.8060 C.2     1     ****    0.7540 
      9 O1          4.0290   -5.4270    1.0950 O.2     1     ****   -0.5440 
     10 O2          5.4930   -4.9110    2.8140 O.3     1     ****   -0.3730 
     11 C8          4.8220   -3.6900    2.9460 C.ar    1     ****    0.1320 
     12 C9          3.7120   -3.6320    3.7910 C.ar    1     ****   -0.1040 
     13 C10         3.0430   -2.4180    3.9610 C.ar    1     ****    0.0240 
     14 C11         3.4960   -1.2700    3.2960 C.ar    1     ****    0.0250 
     15 C12         4.6210   -1.3370    2.4640 C.ar    1     ****   -0.1100 
     16 C13         5.2910   -2.5490    2.2930 C.ar    1     ****    0.0250 
     17 CL1         6.6820   -2.6040    1.2770 Cl      1     ****   -0.0550 
     18 CL2         2.7110    0.2600    3.4670 Cl      1     ****   -0.0550 
     19 CL3         1.6670   -2.3930    5.0060 Cl      1     ****   -0.0540 
     20 H1          6.4770   -6.9520    2.4490 H       1     ****    0.3430 
     21 H2          5.3190  -11.1690   -1.3410 H       1     ****    0.1360 
     22 H3          7.0680  -11.0260    0.4130 H       1     ****    0.1350 
     23 H4          7.2320   -9.0300    1.8420 H       1     ****    0.1330 
     24 H5          3.8620   -7.3000   -0.2560 H       1     ****    0.1730 
     25 H6          3.7300   -9.2930   -1.6540 H       1     ****    0.1380 
     26 H7          3.3760   -4.5290    4.3040 H       1     ****    0.1700 
     27 H8          4.9760   -0.4440    1.9540 H       1     ****    0.1690 
@<TRIPOS>BOND
     1  2 1 ar
     2  3 2 ar
     3  4 3 ar
     4  5 4 ar
     5  6 1 ar
     6  6 5 ar
     7  7 4 1
     8  8 7 1
     9  9 8 2
    10 10 8 1
    11 11 10 1
    12 12 11 ar
    13 13 12 ar
    14 14 13 ar
    15 15 14 ar
    16 16 11 ar
    17 16 15 ar
    18 17 16 1
    19 18 14 1
    20 19 13 1
    21 20 7 1
    22 21 1 1
    23 22 2 1
    24 23 3 1
    25 24 5 1
    26 25 6 1
    27 26 12 1
    28 27 15 1
@<TRIPOS>SUBSTRUCTURE
1     ****    1
@<TRIPOS>MOLECULE
ZINC00001775
35 37 1 0 0 
SMALL
USER_CHARGES


@<TRIPOS>ATOM
      1 C1          1.8090   -0.6320   -4.4630 C.3     1     ****   -0.1180 
      2 C2          0.7380   -1.7140   -4.6540 C.3     1     ****    0.1900 
      3 C3          1.3440   -3.0560   -5.0230 C.2     1     ****   -0.1900 
      4 C4          1.1970   -3.5940   -6.2440 C.2     1     ****   -0.0880 
      5 C5          0.4430   -2.8750   -7.3290 C.3     1     ****   -0.0830 
      6 C6          0.2660   -1.3870   -6.9920 C.3     1     ****    0.1550 
      7 O1         -0.1970   -1.2790   -5.6490 O.3     1     ****   -0.4260 
      8 C7         -0.7720   -0.7260   -7.8980 C.3     1     ****   -0.1970 
      9 C8         -0.3930   -0.5830   -9.3730 C.2     1     ****    0.9110 
     10 O2          0.8410   -0.5800   -9.6350 O.co2   1     ****   -0.8570 
     11 C9          1.7600   -4.9230   -6.5840 C.2     1     ****    0.5630 
     12 O3          1.5670   -5.4350   -7.6810 O.2     1     ****   -0.5010 
     13 C10         2.5660   -5.6140   -5.5630 C.ar    1     ****   -0.0940 
     14 C11         3.1750   -6.8320   -5.9000 C.ar    1     ****   -0.1300 
     15 C12         3.9460   -7.5140   -4.9620 C.ar    1     ****   -0.0860 
     16 C13         4.1130   -6.9860   -3.6860 C.ar    1     ****   -0.2180 
     17 C14         3.5060   -5.7730   -3.3480 C.ar    1     ****    0.1600 
     18 C15         2.7240   -5.0750   -4.2840 C.ar    1     ****   -0.1560 
     19 C16         2.0600   -3.7930   -3.9420 C.2     1     ****    0.5830 
     20 O4          2.0880   -3.3450   -2.8020 O.2     1     ****   -0.5130 
     21 O5          3.6950   -5.2770   -2.0870 O.3     1     ****   -0.4590 
     22 H1          4.2570   -5.8890   -1.5810 H       1     ****    0.4090 
     23 H2          1.3380    0.3500   -4.3370 H       1     ****    0.0470 
     24 H3          2.4270   -0.8300   -3.5820 H       1     ****    0.0400 
     25 H4          2.4780   -0.5570   -5.3260 H       1     ****    0.0470 
     26 H5          0.2090   -1.8090   -3.6910 H       1     ****    0.0770 
     27 H6          0.9620   -2.9720   -8.2890 H       1     ****    0.1270 
     28 H7         -0.5370   -3.3590   -7.4310 H       1     ****    0.0740 
     29 H8          1.2370   -0.8840   -7.1210 H       1     ****    0.0630 
     30 H9         -1.7260   -1.2640   -7.8180 H       1     ****    0.0370 
     31 H10        -0.9750    0.2860   -7.5230 H       1     ****    0.0420 
     32 H11         3.0590   -7.2620   -6.8920 H       1     ****    0.1610 
     33 H12         4.4170   -8.4570   -5.2280 H       1     ****    0.1330 
     34 H13         4.7190   -7.5270   -2.9640 H       1     ****    0.1310 
     35 O6         -1.3800   -0.4710  -10.1560 O.co2   1     ****   -0.8350 
@<TRIPOS>BOND
     1  2 1 1
     2  3 2 1
     3  4 3 2
     4  5 4 1
     5  6 5 1
     6  7 2 1
     7  7 6 1
     8  8 6 1
     9  9 8 1
    10 10 9 1
    11 11 4 1
    12 12 11 2
    13 13 11 1
    14 14 13 ar
    15 15 14 ar
    16 16 15 ar
    17 17 16 ar
    18 18 13 ar
    19 18 17 ar
    20 19 3 1
    21 19 18 1
    22 20 19 2
    23 21 17 1
    24 22 21 1
    25 23 1 1
    26 24 1 1
    27 25 1 1
    28 26 2 1
    29 27 5 1
    30 28 5 1
    31 29 6 1
    32 30 8 1
    33 31 8 1
    34 32 14 1
    35 33 15 1
    36 34 16 1
    37 35 9 2
@<TRIPOS>SUBSTRUCTURE
1     ****    1
@<TRIPOS>MOLECULE
ZINC00001803
24 25 1 0 0 
SMALL
USER_CHARGES


@<TRIPOS>ATOM
      1 C1          4.4480   -7.0790    0.7710 C.2     1     ****   -0.2690 
      2 C2          5.7110   -7.3350    0.1790 C.2     1     ****   -0.1330 
      3 C3          5.8060   -6.4410   -0.8560 C.2     1     ****    0.1190 
      4 O1          4.7090   -5.6530   -0.9540 O.2     1     ****   -0.2930 
      5 C4          3.8690   -6.0480    0.0520 C.2     1     ****    0.2890 
      6 C5          2.6060   -5.3870    0.2050 C.2     1     ****    0.2570 
      7 N1          2.2570   -4.4410   -0.6020 N.2     1     ****   -0.3930 
      8 N2          1.0700   -3.8200   -0.3940 N.am    1     ****   -0.2250 
      9 C6          0.4840   -3.0180   -1.4410 C.3     1     ****    0.0900 
     10 C7         -0.8500   -2.5760   -0.8600 C.3     1     ****    0.0400 
     11 N3         -0.7230   -2.8300    0.5510 N.am    1     ****   -0.5100 
     12 C8          0.4070   -3.6180    0.8390 C.2     1     ****    0.7510 
     13 O2          0.7170   -4.0050    1.9560 O.2     1     ****   -0.6160 
     14 N4          6.8230   -6.2020   -1.8160 N.2     1     ****    0.2470 
     15 O3          7.8320   -6.9120   -1.7390 O.2     1     ****   -0.2020 
     16 O4          6.6250   -5.3090   -2.6490 O.3     1     ****   -0.1750 
     17 H1         -1.3940   -2.5410    1.2550 H       1     ****    0.3210 
     18 H2          4.0110   -7.5850    1.6200 H       1     ****    0.1800 
     19 H3          6.4420   -8.0740    0.4770 H       1     ****    0.1890 
     20 H4          1.9630   -5.7560    1.0210 H       1     ****    0.0540 
     21 H5          1.1400   -2.1600   -1.6250 H       1     ****    0.0790 
     22 H6          0.3710   -3.6000   -2.3600 H       1     ****    0.0740 
     23 H7         -1.0640   -1.5190   -1.0370 H       1     ****    0.0530 
     24 H8         -1.6770   -3.1850   -1.2370 H       1     ****    0.0750 
@<TRIPOS>BOND
     1  2 1 1
     2  3 2 2
     3  4 3 1
     4  5 1 2
     5  5 4 1
     6  6 5 1
     7  7 6 2
     8  8 7 1
     9  9 8 1
    10 10 9 1
    11 11 10 1
    12 12 8 1
    13 12 11 1
    14 13 12 2
    15 14 3 1
    16 15 14 2
    17 16 14 1
    18 17 11 1
    19 18 1 1
    20 19 2 1
    21 20 6 1
    22 21 9 1
    23 22 9 1
    24 23 10 1
    25 24 10 1
@<TRIPOS>SUBSTRUCTURE
1     ****    1
@<TRIPOS>MOLECULE
ZINC00001817
31 32 1 0 0 
SMALL
USER_CHARGES


@<TRIPOS>ATOM
      1 C1          5.9600   -7.5620    0.0440 C.2     1     ****    0.4520 
      2 C2          5.6270   -6.2890   -0.3550 C.2     1     ****   -0.3450 
      3 N1          4.3510   -6.0680    0.1090 N.pl3   1     ****   -0.2050 
      4 C3          3.9890   -7.2120    0.7760 C.2     1     ****    0.4450 
      5 N2          4.9340   -8.1270    0.7530 N.2     1     ****   -0.6320 
      6 C4          3.5270   -4.8830   -0.0850 C.3     1     ****    0.0240 
      7 C5          2.0860   -4.9770    0.4220 C.3     1     ****    0.0880 
      8 C6          0.1020   -3.5970    1.0800 C.3     1     ****    0.0710 
      9 C7         -0.5590   -2.2410    0.8840 C.3     1     ****    0.0990 
     10 O1         -0.8820   -2.0340   -0.4910 O.3     1     ****   -0.3670 
     11 C8          0.2940   -2.0300   -1.3010 C.3     1     ****    0.0980 
     12 C9          1.0050   -3.3740   -1.2250 C.3     1     ****    0.0670 
     13 N3          6.4200   -5.3730   -1.1070 N.2     1     ****    0.3620 
     14 O2          6.0760   -4.1870   -1.1320 O.2     1     ****   -0.2550 
     15 O3          7.4130   -5.8450   -1.6720 O.3     1     ****   -0.1330 
     16 H1          6.8790   -8.1020   -0.1330 H       1     ****    0.0930 
     17 H2          3.0300   -7.3400    1.2590 H       1     ****    0.0720 
     18 H3          3.5310   -4.6890   -1.1620 H       1     ****    0.0990 
     19 H4          4.0400   -4.0630    0.4300 H       1     ****    0.0940 
     20 H5          2.0810   -5.1770    1.5000 H       1     ****    0.1100 
     21 H6          1.5110   -5.7570   -0.0900 H       1     ****    0.1180 
     22 H7         -0.5480   -4.4150    0.7520 H       1     ****    0.1190 
     23 H8          0.4010   -3.7420    2.1220 H       1     ****    0.1120 
     24 H9         -1.4930   -2.2000    1.4540 H       1     ****    0.1350 
     25 H10         0.0810   -1.4240    1.2390 H       1     ****    0.0690 
     26 H11        -0.0150   -1.8350   -2.3330 H       1     ****    0.1360 
     27 H12         0.9500   -1.2080   -0.9920 H       1     ****    0.0710 
     28 H13         1.9310   -3.3510   -1.8050 H       1     ****    0.1180 
     29 H14         0.3610   -4.1910   -1.5650 H       1     ****    0.1180 
     30 N4          1.3570   -3.6600    0.2240 N.4     1     ****   -0.6820 
     31 H15         1.9800   -2.9090    0.5520 H       1     ****    0.4510 
@<TRIPOS>BOND
     1  2 1 2
     2  3 2 1
     3  4 3 1
     4  5 1 1
     5  5 4 2
     6  6 3 1
     7  7 6 1
     8  9 8 1
     9 10 9 1
    10 11 10 1
    11 12 11 1
    12 13 2 1
    13 14 13 2
    14 15 13 1
    15 16 1 1
    16 17 4 1
    17 18 6 1
    18 19 6 1
    19 20 7 1
    20 21 7 1
    21 22 8 1
    22 23 8 1
    23 24 9 1
    24 25 9 1
    25 26 11 1
    26 27 11 1
    27 28 12 1
    28 29 12 1
    29 30 7 1
    30 30 8 1
    31 30 12 1
    32 31 30 1
@<TRIPOS>SUBSTRUCTURE
1     ****    1
@<TRIPOS>MOLECULE
ZINC00001841
55 58 1 0 0 
SMALL
USER_CHARGES


@<TRIPOS>ATOM
      1 C1          2.3100    7.3570    5.4420 C.3     1     ****   -0.0850 
      2 C2          0.9170    7.7270    6.0120 C.3     1     ****   -0.0350 
      3 C3         -0.0320    7.9920    4.8060 C.3     1     ****   -0.0710 
      4 C4         -0.3350    6.7420    3.9730 C.3     1     ****   -0.0770 
      5 C5         -0.8280    5.5750    4.8200 C.3     1     ****   -0.0790 
      6 C6          0.0730    5.2990    6.0210 C.3     1     ****   -0.0750 
      7 C7          0.2680    6.5720    6.8640 C.3     1     ****   -0.0570 
      8 C8          1.0830    6.3010    8.1370 C.3     1     ****   -0.0770 
      9 C9          1.2380    7.5570    9.0130 C.3     1     ****   -0.0730 
     10 C10         1.8800    8.6910    8.2050 C.3     1     ****   -0.0420 
     11 C11         0.9740    8.9720    6.9640 C.3     1     ****   -0.0830 
     12 C12         1.4210   10.2860    6.2900 C.3     1     ****    0.1530 
     13 C13         1.1410   11.4920    7.2360 C.3     1     ****   -0.0850 
     14 C14         1.2670   11.1640    8.7580 C.3     1     ****   -0.0520 
     15 C15         2.2500    9.9940    8.9440 C.3     1     ****   -0.0560 
     16 C16         2.4920    9.9770   10.4540 C.3     1     ****   -0.0890 
     17 C17         2.4240   11.4700   10.8630 C.3     1     ****   -0.1030 
     18 C18         1.8880   12.2670    9.6390 C.3     1     ****    0.1110 
     19 C19        -0.1580   10.8730    9.3210 C.3     1     ****   -0.0990 
     20 O1          2.8130   10.2410    6.0100 O.3     1     ****   -0.6330 
     21 H1          3.5750   13.4920    9.6390 H       1     ****    0.4530 
     22 H2          3.6930   12.2670    8.5370 H       1     ****    0.4710 
     23 H3          3.0240   11.0050    5.4470 H       1     ****    0.4270 
     24 H4          3.0630    7.1780    6.2120 H       1     ****    0.0440 
     25 H5          2.2830    6.4460    4.8370 H       1     ****    0.0550 
     26 H6          2.6900    8.1400    4.7790 H       1     ****    0.0190 
     27 H7         -0.9820    8.4010    5.1740 H       1     ****    0.0390 
     28 H8          0.3940    8.7470    4.1350 H       1     ****    0.0310 
     29 H9         -1.0910    6.9860    3.2180 H       1     ****    0.0490 
     30 H10         0.5600    6.4370    3.4170 H       1     ****    0.0450 
     31 H11        -1.8420    5.7970    5.1760 H       1     ****    0.0430 
     32 H12        -0.9030    4.6750    4.2000 H       1     ****    0.0530 
     33 H13        -0.3950    4.5210    6.6370 H       1     ****    0.0500 
     34 H14         1.0330    4.8880    5.6920 H       1     ****    0.0490 
     35 H15        -0.7560    6.8590    7.1760 H       1     ****    0.0460 
     36 H16         0.5830    5.5250    8.7300 H       1     ****    0.0560 
     37 H17         2.0720    5.9010    7.8840 H       1     ****    0.0500 
     38 H18         0.2610    7.8610    9.4040 H       1     ****    0.0410 
     39 H19         1.8660    7.3010    9.8750 H       1     ****    0.0460 
     40 H20         2.8590    8.2720    7.9150 H       1     ****    0.0710 
     41 H21        -0.0560    9.1100    7.3290 H       1     ****    0.0560 
     42 H22         0.8620   10.4750    5.3640 H       1     ****    0.0610 
     43 H23         1.8020   12.3090    6.9360 H       1     ****    0.0270 
     44 H24         0.1240   11.8540    7.0370 H       1     ****    0.0750 
     45 H25         3.2470   10.2350    8.5270 H       1     ****    0.0440 
     46 H26         1.7230    9.4130   10.9920 H       1     ****    0.0810 
     47 H27         3.4620    9.5380   10.7070 H       1     ****    0.0720 
     48 H28         1.7390   11.5780   11.7130 H       1     ****    0.0930 
     49 H29         3.4050   11.8270   11.1970 H       1     ****    0.0600 
     50 H30         1.1880   13.0490    9.9680 H       1     ****    0.1080 
     51 H31        -0.6980   10.0690    8.8280 H       1     ****    0.0770 
     52 H32        -0.1410   10.6230   10.3870 H       1     ****    0.0520 
     53 H33        -0.7830   11.7700    9.2250 H       1     ****    0.0470 
     54 N1          3.0350   12.9280    8.9690 N.4     1     ****   -0.8390 
     55 H34         2.7220   13.5810    8.2390 H       1     ****    0.4550 
@<TRIPOS>BOND
     1  2 1 1
     2  3 2 1
     3  4 3 1
     4  5 4 1
     5  6 5 1
     6  7 2 1
     7  7 6 1
     8  8 7 1
     9  9 8 1
    10 10 9 1
    11 11 2 1
    12 11 10 1
    13 12 11 1
    14 13 12 1
    15 14 13 1
    16 15 10 1
    17 15 14 1
    18 16 15 1
    19 17 16 1
    20 18 14 1
    21 18 17 1
    22 19 14 1
    23 20 12 1
    24 23 20 1
    25 24 1 1
    26 25 1 1
    27 26 1 1
    28 27 3 1
    29 28 3 1
    30 29 4 1
    31 30 4 1
    32 31 5 1
    33 32 5 1
    34 33 6 1
    35 34 6 1
    36 35 7 1
    37 36 8 1
    38 37 8 1
    39 38 9 1
    40 39 9 1
    41 40 10 1
    42 41 11 1
    43 42 12 1
    44 43 13 1
    45 44 13 1
    46 45 15 1
    47 46 16 1
    48 47 16 1
    49 48 17 1
    50 49 17 1
    51 50 18 1
    52 51 19 1
    53 52 19 1
    54 53 19 1
    55 54 18 1
    56 54 21 1
    57 54 22 1
    58 55 54 1
@<TRIPOS>SUBSTRUCTURE
1     ****    1
@<TRIPOS>MOLECULE
ZINC00001842
52 55 1 0 0 
SMALL
USER_CHARGES


@<TRIPOS>ATOM
      1 C1         -0.0860    5.3450    1.0800 C.3     1     ****   -0.0850 
      2 C2         -0.9670    4.2510    0.4230 C.3     1     ****   -0.0710 
      3 C3         -0.9050    2.9930    1.3090 C.3     1     ****   -0.0780 
      4 C4         -1.6130    3.2000    2.6450 C.3     1     ****   -0.1650 
      5 C5         -2.8020    4.1400    2.6670 C.2     1     ****    0.7170 
      6 O1         -3.5570    4.1800    3.6370 O.2     1     ****   -0.5890 
      7 O2         -2.9280    5.0210    1.6430 O.3     1     ****   -0.4110 
      8 C6         -2.4500    4.6510    0.3460 C.3     1     ****    0.1520 
      9 C7         -2.7280    5.7990   -0.6380 C.3     1     ****   -0.0780 
     10 C8         -2.1550    5.5230   -2.0400 C.3     1     ****   -0.0730 
     11 C9         -0.6620    5.1780   -1.9240 C.3     1     ****   -0.0490 
     12 C10        -0.5000    3.9210   -1.0370 C.3     1     ****   -0.0520 
     13 C11         0.9420    3.4030   -1.1690 C.3     1     ****   -0.0680 
     14 C12         1.1910    2.8610   -2.5990 C.3     1     ****   -0.0660 
     15 C13         0.3610    3.5670   -3.7150 C.3     1     ****   -0.0270 
     16 C14         0.0790    5.0160   -3.2750 C.3     1     ****   -0.0630 
     17 C15        -0.4570    5.6610   -4.5550 C.3     1     ****   -0.0690 
     18 C16         0.3320    4.9560   -5.6940 C.3     1     ****   -0.1070 
     19 C17         1.1390    3.7960   -5.0380 C.3     1     ****    0.1480 
     20 C18         1.2920    2.5820   -5.9480 C.3     1     ****   -0.1160 
     21 O3          2.4540    4.2790   -4.7420 O.3     1     ****   -0.5990 
     22 C19        -0.9330    2.7450   -3.9950 C.3     1     ****   -0.0880 
     23 H1          2.8850    4.5100   -5.5830 H       1     ****    0.3990 
     24 H2          0.9670    5.0460    1.0990 H       1     ****    0.0420 
     25 H3         -0.1490    6.3110    0.5760 H       1     ****    0.0470 
     26 H4         -0.3740    5.5380    2.1190 H       1     ****    0.0400 
     27 H5         -1.3930    2.1570    0.7890 H       1     ****    0.0490 
     28 H6          0.1270    2.6760    1.4990 H       1     ****    0.0570 
     29 H7         -1.9480    2.2250    3.0180 H       1     ****    0.0820 
     30 H8         -0.8930    3.5970    3.3700 H       1     ****    0.0830 
     31 H9         -3.0360    3.7940   -0.0340 H       1     ****    0.0450 
     32 H10        -3.8100    5.9640   -0.7100 H       1     ****    0.0600 
     33 H11        -2.3190    6.7380   -0.2440 H       1     ****    0.0600 
     34 H12        -2.7130    4.7070   -2.5120 H       1     ****    0.0440 
     35 H13        -2.3000    6.4190   -2.6530 H       1     ****    0.0500 
     36 H14        -0.2370    6.0700   -1.4330 H       1     ****    0.0510 
     37 H15        -1.1100    3.0810   -1.3990 H       1     ****    0.0500 
     38 H16         1.6560    4.2100   -0.9640 H       1     ****    0.0470 
     39 H17         1.1570    2.6000   -0.4580 H       1     ****    0.0380 
     40 H18         2.2680    2.9290   -2.7890 H       1     ****    0.0700 
     41 H19         0.9730    1.7850   -2.6070 H       1     ****    0.0350 
     42 H20         1.0220    5.5680   -3.0810 H       1     ****    0.0640 
     43 H21        -1.5290    5.4840   -4.6930 H       1     ****    0.0430 
     44 H22        -0.2930    6.7430   -4.5670 H       1     ****    0.0460 
     45 H23        -0.3790    4.5850   -6.4420 H       1     ****    0.0470 
     46 H24         0.9940    5.6750   -6.1890 H       1     ****    0.0470 
     47 H25         1.9030    2.8310   -6.8240 H       1     ****    0.0330 
     48 H26         1.8130    1.7710   -5.4260 H       1     ****    0.0500 
     49 H27         0.3330    2.2020   -6.3120 H       1     ****    0.0470 
     50 H28        -0.6880    1.6930   -4.1840 H       1     ****    0.0360 
     51 H29        -1.6670    2.7540   -3.1930 H       1     ****    0.0390 
     52 H30        -1.4650    3.1050   -4.8820 H       1     ****    0.0350 
@<TRIPOS>BOND
     1  2 1 1
     2  3 2 1
     3  4 3 1
     4  5 4 1
     5  6 5 2
     6  7 5 1
     7  8 2 1
     8  8 7 1
     9  9 8 1
    10 10 9 1
    11 11 10 1
    12 12 2 1
    13 12 11 1
    14 13 12 1
    15 14 13 1
    16 15 14 1
    17 16 11 1
    18 16 15 1
    19 17 16 1
    20 18 17 1
    21 19 15 1
    22 19 18 1
    23 20 19 1
    24 21 19 1
    25 22 15 1
    26 23 21 1
    27 24 1 1
    28 25 1 1
    29 26 1 1
    30 27 3 1
    31 28 3 1
    32 29 4 1
    33 30 4 1
    34 31 8 1
    35 32 9 1
    36 33 9 1
    37 34 10 1
    38 35 10 1
    39 36 11 1
    40 37 12 1
    41 38 13 1
    42 39 13 1
    43 40 14 1
    44 41 14 1
    45 42 16 1
    46 43 17 1
    47 44 17 1
    48 45 18 1
    49 46 18 1
    50 47 20 1
    51 48 20 1
    52 49 20 1
    53 50 22 1
    54 51 22 1
    55 52 22 1
@<TRIPOS>SUBSTRUCTURE
1     ****    1
@<TRIPOS>MOLECULE
ZINC00001878
53 56 1 0 0 
SMALL
USER_CHARGES


@<TRIPOS>ATOM
      1 C1         -2.1580    1.7330   -2.0650 C.3     1     ****   -0.0950 
      2 C2         -0.8720    2.2620   -2.7570 C.3     1     ****   -0.0330 
      3 C3         -0.6490    1.4100   -4.0430 C.3     1     ****   -0.0730 
      4 C4         -1.3210    1.9420   -5.3130 C.3     1     ****   -0.1810 
      5 C5         -2.4570    2.8980   -5.0710 C.2     1     ****    0.4750 
      6 O1         -3.4920    2.9150   -5.7210 O.2     1     ****   -0.4740 
      7 C6         -2.2430    3.9420   -4.0000 C.2     1     ****    0.4750 
      8 C7         -1.0010    3.7620   -3.1600 C.3     1     ****   -0.1520 
      9 C8         -1.0190    4.7260   -1.9520 C.3     1     ****   -0.0700 
     10 C9          0.1460    4.4880   -0.9750 C.3     1     ****   -0.0720 
     11 C10         0.1720    3.0110   -0.5600 C.3     1     ****   -0.0480 
     12 C11         0.3830    2.1450   -1.8220 C.3     1     ****   -0.0530 
     13 C12         0.7440    0.7140   -1.3860 C.3     1     ****   -0.0700 
     14 C13         2.1380    0.6890   -0.7120 C.3     1     ****   -0.0620 
     15 C14         2.5030    1.9930    0.0620 C.3     1     ****   -0.0670 
     16 C15         1.2010    2.6610    0.5440 C.3     1     ****   -0.0590 
     17 C16         1.7060    3.7280    1.5180 C.3     1     ****   -0.0700 
     18 C17         2.9630    3.0890    2.1680 C.3     1     ****   -0.0740 
     19 C18         3.2440    1.7590    1.4090 C.3     1     ****    0.1510 
     20 C19         4.7320    1.4340    1.3190 C.3     1     ****   -0.1200 
     21 O2          2.6100    0.7050    2.1430 O.3     1     ****   -0.5960 
     22 C20         3.3630    2.9080   -0.8610 C.3     1     ****   -0.0850 
     23 O3         -3.0370    4.8650   -3.9140 O.2     1     ****   -0.4730 
     24 H1          2.9900   -0.1430    1.8580 H       1     ****    0.3970 
     25 H2         -0.1060    4.0520   -3.7390 H       1     ****    0.0740 
     26 H3         -2.0040    0.7340   -1.6440 H       1     ****    0.0450 
     27 H4         -2.5100    2.3830   -1.2610 H       1     ****    0.0480 
     28 H5         -2.9920    1.6370   -2.7690 H       1     ****    0.0390 
     29 H6          0.4240    1.3290   -4.2630 H       1     ****    0.0510 
     30 H7         -0.9850    0.3790   -3.8700 H       1     ****    0.0550 
     31 H8         -0.5830    2.4760   -5.9240 H       1     ****    0.0670 
     32 H9         -1.6860    1.1020   -5.9130 H       1     ****    0.0770 
     33 H10        -0.9760    5.7630   -2.3090 H       1     ****    0.0570 
     34 H11        -1.9680    4.6370   -1.4090 H       1     ****    0.0550 
     35 H12         1.0890    4.7850   -1.4460 H       1     ****    0.0420 
     36 H13        -0.0030    5.1340   -0.1030 H       1     ****    0.0500 
     37 H14        -0.8310    2.8500   -0.1270 H       1     ****    0.0510 
     38 H15         1.2600    2.4700   -2.3990 H       1     ****    0.0500 
     39 H16         0.0010    0.3320   -0.6750 H       1     ****    0.0470 
     40 H17         0.7570    0.0180   -2.2310 H       1     ****    0.0400 
     41 H18         2.1660   -0.1950   -0.0670 H       1     ****    0.0400 
     42 H19         2.8950    0.4970   -1.4830 H       1     ****    0.0380 
     43 H20         0.6140    1.9750    1.1910 H       1     ****    0.0630 
     44 H21         1.9950    4.6530    1.0080 H       1     ****    0.0410 
     45 H22         0.9530    3.9840    2.2700 H       1     ****    0.0480 
     46 H23         3.8010    3.7900    2.0880 H       1     ****    0.0460 
     47 H24         2.7800    2.9060    3.2340 H       1     ****    0.0670 
     48 H25         5.1350    1.2110    2.3130 H       1     ****    0.0480 
     49 H26         4.8980    0.5410    0.7060 H       1     ****    0.0360 
     50 H27         5.3180    2.2560    0.8980 H       1     ****    0.0500 
     51 H28         4.2290    2.3580   -1.2480 H       1     ****    0.0320 
     52 H29         2.8400    3.3070   -1.7270 H       1     ****    0.0380 
     53 H30         3.7570    3.7780   -0.3270 H       1     ****    0.0380 
@<TRIPOS>BOND
     1  2 1 1
     2  3 2 1
     3  4 3 1
     4  5 4 1
     5  6 5 2
     6  7 5 1
     7  8 2 1
     8  8 7 1
     9  9 8 1
    10 10 9 1
    11 11 10 1
    12 12 2 1
    13 12 11 1
    14 13 12 1
    15 14 13 1
    16 15 14 1
    17 16 11 1
    18 16 15 1
    19 17 16 1
    20 18 17 1
    21 19 15 1
    22 19 18 1
    23 20 19 1
    24 21 19 1
    25 22 15 1
    26 23 7 2
    27 24 21 1
    28 25 8 1
    29 26 1 1
    30 27 1 1
    31 28 1 1
    32 29 3 1
    33 30 3 1
    34 31 4 1
    35 32 4 1
    36 33 9 1
    37 34 9 1
    38 35 10 1
    39 36 10 1
    40 37 11 1
    41 38 12 1
    42 39 13 1
    43 40 13 1
    44 41 14 1
    45 42 14 1
    46 43 16 1
    47 44 17 1
    48 45 17 1
    49 46 18 1
    50 47 18 1
    51 48 20 1
    52 49 20 1
    53 50 20 1
    54 51 22 1
    55 52 22 1
    56 53 22 1
@<TRIPOS>SUBSTRUCTURE
1     ****    1
@<TRIPOS>MOLECULE
ZINC00001890
21 21 1 0 0 
SMALL
USER_CHARGES


@<TRIPOS>ATOM
      1 C1          5.2460  -10.5550   -0.5720 C.3     1     ****   -0.0880 
      2 C2          4.8930   -9.0790   -0.4810 C.3     1     ****   -0.1760 
      3 C3          4.2580   -8.5580   -1.7600 C.2     1     ****    0.5800 
      4 O1          4.0680   -9.2810   -2.7360 O.2     1     ****   -0.5390 
      5 C4          3.8550   -7.1220   -1.8270 C.ar    1     ****   -0.2140 
      6 C5          4.0440   -6.2470   -0.7490 C.ar    1     ****   -0.0510 
      7 C6          3.6530   -4.9100   -0.8510 C.ar    1     ****   -0.2320 
      8 C7          3.0720   -4.4480   -2.0300 C.ar    1     ****    0.1530 
      9 C8          2.8780   -5.3050   -3.1080 C.ar    1     ****   -0.1730 
     10 C9          3.2680   -6.6420   -3.0070 C.ar    1     ****   -0.0410 
     11 O2          2.6790   -3.1470   -2.1600 O.3     1     ****   -0.4910 
     12 H1          2.8790   -2.6770   -1.3320 H       1     ****    0.4230 
     13 H2          5.7000  -10.8960    0.3640 H       1     ****    0.0340 
     14 H3          4.3540  -11.1620   -0.7600 H       1     ****    0.0480 
     15 H4          5.9570  -10.7410   -1.3840 H       1     ****    0.0490 
     16 H5          4.1900   -8.9360    0.3460 H       1     ****    0.0630 
     17 H6          5.8090   -8.5110   -0.2840 H       1     ****    0.0630 
     18 H7          4.4940   -6.5760    0.1830 H       1     ****    0.1360 
     19 H8          3.8060   -4.2430   -0.0070 H       1     ****    0.1370 
     20 H9          2.4250   -4.9420   -4.0260 H       1     ****    0.1570 
     21 H10         3.1080   -7.2950   -3.8610 H       1     ****    0.1610 
@<TRIPOS>BOND
     1  2 1 1
     2  3 2 1
     3  4 3 2
     4  5 3 1
     5  6 5 ar
     6  7 6 ar
     7  8 7 ar
     8  9 8 ar
     9 10 5 ar
    10 10 9 ar
    11 11 8 1
    12 12 11 1
    13 13 1 1
    14 14 1 1
    15 15 1 1
    16 16 2 1
    17 17 2 1
    18 18 6 1
    19 19 7 1
    20 20 9 1
    21 21 10 1
@<TRIPOS>SUBSTRUCTURE
1     ****    1
@<TRIPOS>MOLECULE
ZINC00001924
20 20 1 0 0 
SMALL
USER_CHARGES


@<TRIPOS>ATOM
      1 C1          5.5910   -9.2620   -0.2620 C.ar    1     ****   -0.1490 
      2 C2          5.8560   -9.0630   -1.6130 C.ar    1     ****   -0.1050 
      3 C3          5.0540   -8.1980   -2.3620 C.ar    1     ****   -0.1460 
      4 C4          3.9790   -7.5090   -1.7760 C.ar    1     ****    0.0630 
      5 C5          3.7220   -7.7340   -0.4140 C.ar    1     ****   -0.1650 
      6 C6          4.5230   -8.5990    0.3370 C.ar    1     ****   -0.1040 
      7 N1          3.1940   -6.6790   -2.5860 N.pl3   1     ****   -0.4440 
      8 N2          2.1900   -5.9430   -2.0200 N.am    1     ****   -0.3460 
      9 C7          2.3010   -4.5640   -2.0140 C.2     1     ****    0.6750 
     10 O1          3.2460   -3.9250   -2.4710 O.2     1     ****   -0.6200 
     11 N3          1.2130   -3.9570   -1.4250 N.am    1     ****   -0.6390 
     12 H1          3.4930   -6.4370   -3.5230 H       1     ****    0.4100 
     13 H2          1.3760   -6.4500   -1.6940 H       1     ****    0.2930 
     14 H3          1.1640   -2.9470   -1.3520 H       1     ****    0.3140 
     15 H4          0.4390   -4.4910   -1.0470 H       1     ****    0.2980 
     16 H5          6.2120   -9.9340    0.3230 H       1     ****    0.1340 
     17 H6          6.6840   -9.5820   -2.0870 H       1     ****    0.1340 
     18 H7          5.2780   -8.0630   -3.4180 H       1     ****    0.1380 
     19 H8          2.8950   -7.2390    0.0890 H       1     ****    0.1260 
     20 H9          4.3100   -8.7560    1.3910 H       1     ****    0.1330 
@<TRIPOS>BOND
     1  2 1 ar
     2  3 2 ar
     3  4 3 ar
     4  5 4 ar
     5  6 1 ar
     6  6 5 ar
     7  7 4 1
     8  8 7 1
     9  9 8 1
    10 10 9 2
    11 11 9 1
    12 12 7 1
    13 13 8 1
    14 14 11 1
    15 15 11 1
    16 16 1 1
    17 17 2 1
    18 18 3 1
    19 19 5 1
    20 20 6 1
@<TRIPOS>SUBSTRUCTURE
1     ****    1
@<TRIPOS>MOLECULE
ZINC00001927
23 23 1 0 0 
SMALL
USER_CHARGES


@<TRIPOS>ATOM
      1 C1          4.2270   -9.9400   -1.3910 C.ar    1     ****   -0.1210 
      2 C2          4.9530   -9.1480   -0.5040 C.ar    1     ****   -0.1230 
      3 C3          4.3000   -8.1940    0.2780 C.ar    1     ****   -0.0930 
      4 C4          2.9130   -8.0260    0.1810 C.ar    1     ****   -0.0810 
      5 C5          2.1920   -8.8260   -0.7170 C.ar    1     ****   -0.1260 
      6 C6          2.8470   -9.7790   -1.4980 C.ar    1     ****   -0.1300 
      7 C7          2.2050   -6.9860    1.0170 C.3     1     ****   -0.0310 
      8 C8          1.8920   -5.6950    0.2390 C.3     1     ****   -0.0720 
      9 C9          3.2050   -4.9450   -0.0590 C.2     1     ****    0.9320 
     10 O1          3.7930   -4.4680    0.9540 O.co2   1     ****   -0.8090 
     11 H1          0.7190   -4.0000    0.5740 H       1     ****    0.4360 
     12 H2          0.1160   -5.3560    1.3180 H       1     ****    0.4120 
     13 H3          4.7360  -10.6810   -2.0010 H       1     ****    0.1310 
     14 H4          6.0300   -9.2700   -0.4240 H       1     ****    0.1360 
     15 H5          4.8830   -7.5810    0.9610 H       1     ****    0.1470 
     16 H6          1.1150   -8.7110   -0.8130 H       1     ****    0.1180 
     17 H7          2.2800  -10.3950   -2.1910 H       1     ****    0.1290 
     18 H8          1.2730   -7.4320    1.3910 H       1     ****    0.0240 
     19 H9          2.8020   -6.7690    1.9130 H       1     ****    0.0750 
     20 H10         1.3780   -5.9560   -0.7010 H       1     ****    0.0960 
     21 O2          3.5120   -4.8760   -1.2810 O.co2   1     ****   -0.7000 
     22 N1          0.9820   -4.8600    1.0720 N.4     1     ****   -0.8320 
     23 H11         1.4490   -4.5730    1.9440 H       1     ****    0.4800 
@<TRIPOS>BOND
     1  2 1 ar
     2  3 2 ar
     3  4 3 ar
     4  5 4 ar
     5  6 1 ar
     6  6 5 ar
     7  7 4 1
     8  8 7 1
     9  9 8 1
    10 10 9 1
    11 13 1 1
    12 14 2 1
    13 15 3 1
    14 16 5 1
    15 17 6 1
    16 18 7 1
    17 19 7 1
    18 20 8 1
    19 21 9 2
    20 22 8 1
    21 22 11 1
    22 22 12 1
    23 23 22 1
@<TRIPOS>SUBSTRUCTURE
1     ****    1
@<TRIPOS>MOLECULE
ZINC00001970
19 19 1 0 0 
SMALL
USER_CHARGES


@<TRIPOS>ATOM
      1 C1          6.6930   -9.2480   -1.3290 C.3     1     ****   -0.0350 
      2 N1          5.3520   -9.4780   -0.7570 N.ar    1     ****    0.0290 
      3 C2          5.2390  -10.3720    0.2550 C.ar    1     ****   -0.0270 
      4 C3          4.0150  -10.6460    0.8480 C.ar    1     ****   -0.1390 
      5 C4          2.8830   -9.9900    0.3940 C.ar    1     ****   -0.0110 
      6 C5          2.9960   -9.0730   -0.6430 C.ar    1     ****   -0.1280 
      7 C6          4.2480   -8.8250   -1.2140 C.ar    1     ****    0.0090 
      8 C7          4.3750   -7.8520   -2.3160 C.2     1     ****    0.3120 
      9 N2          3.3510   -7.2090   -2.7810 N.2     1     ****   -0.3400 
     10 O1          3.7790   -6.3670   -3.8100 O.3     1     ****   -0.3030 
     11 H1          2.9460   -5.9430   -4.0800 H       1     ****    0.4800 
     12 H2          7.4350   -9.8690   -0.8200 H       1     ****    0.1000 
     13 H3          6.6630   -9.5210   -2.3860 H       1     ****    0.1010 
     14 H4          6.9490   -8.1950   -1.1830 H       1     ****    0.1020 
     15 H5          6.1460  -10.8670    0.5860 H       1     ****    0.2080 
     16 H6          3.9460  -11.3660    1.6570 H       1     ****    0.2010 
     17 H7          1.9160  -10.1900    0.8440 H       1     ****    0.1940 
     18 H8          2.1030   -8.5630   -0.9920 H       1     ****    0.2080 
     19 H9          5.3710   -7.6720   -2.7500 H       1     ****    0.0400 
@<TRIPOS>BOND
     1  2 1 1
     2  3 2 ar
     3  4 3 ar
     4  5 4 ar
     5  6 5 ar
     6  7 2 ar
     7  7 6 ar
     8  8 7 1
     9  9 8 2
    10 10 9 1
    11 11 10 1
    12 12 1 1
    13 13 1 1
    14 14 1 1
    15 15 3 1
    16 16 4 1
    17 17 5 1
    18 18 6 1
    19 19 8 1
@<TRIPOS>SUBSTRUCTURE
1     ****    1
@<TRIPOS>MOLECULE
ZINC00002008
28 29 1 0 0 
SMALL
USER_CHARGES


@<TRIPOS>ATOM
      1 C1          6.3800   -6.6150   -1.0040 C.ar    1     ****   -0.2420 
      2 C2          5.1660   -5.9330   -0.9120 C.ar    1     ****    0.0450 
      3 C3          4.1300   -6.4820   -0.1580 C.ar    1     ****   -0.4420 
      4 C4          4.2870   -7.7020    0.4930 C.ar    1     ****    0.0390 
      5 C5          5.5060   -8.3760    0.3930 C.ar    1     ****   -0.2420 
      6 C6          6.5680   -7.8380   -0.3470 C.ar    1     ****    0.2460 
      7 N1          7.7680   -8.5240   -0.4610 N.pl3   1     ****   -0.8600 
      8 S1          2.5980   -5.6060   -0.0510 S.o2    1     ****    1.3840 
      9 O1          2.1760   -5.3820   -1.4220 O.3     1     ****   -0.6710 
     10 O2          1.7350   -6.3070    0.8810 O.3     1     ****   -0.6580 
     11 C7          2.9200   -4.0380    0.6750 C.ar    1     ****    0.0780 
     12 C8          2.3780   -2.8740    0.1690 C.ar    1     ****   -0.0960 
     13 C9          2.7230   -1.6910    0.8150 C.ar    1     ****   -0.2040 
     14 C10         3.5740   -1.7090    1.9240 C.ar    1     ****    0.1050 
     15 C11         4.0640   -2.9500    2.3240 C.ar    1     ****    0.3100 
     16 N2          3.7580   -4.1260    1.7290 N.ar    1     ****   -0.5490 
     17 N3          3.9510   -0.5400    2.5600 N.pl3   1     ****   -0.8360 
     18 H1          7.9150   -9.3830    0.0510 H       1     ****    0.4240 
     19 H2          8.5460   -8.1120   -0.9580 H       1     ****    0.4230 
     20 H3          3.5450    0.3450    2.2840 H       1     ****    0.4160 
     21 H4          4.5260   -0.5710    3.3910 H       1     ****    0.4160 
     22 H5          7.1840   -6.1840   -1.5970 H       1     ****    0.1360 
     23 H6          5.0460   -4.9850   -1.4300 H       1     ****    0.1390 
     24 H7          3.4860   -8.1450    1.0760 H       1     ****    0.1610 
     25 H8          5.6230   -9.3310    0.9010 H       1     ****    0.1380 
     26 H9          1.7150   -2.8640   -0.6880 H       1     ****    0.1710 
     27 H10         2.3220   -0.7500    0.4460 H       1     ****    0.1440 
     28 H11         4.7430   -3.0370    3.1670 H       1     ****    0.0240 
@<TRIPOS>BOND
     1  2 1 ar
     2  3 2 ar
     3  4 3 ar
     4  5 4 ar
     5  6 1 ar
     6  6 5 ar
     7  7 6 1
     8  8 3 1
     9  9 8 1
    10 10 8 1
    11 11 8 1
    12 12 11 ar
    13 13 12 ar
    14 14 13 ar
    15 15 14 ar
    16 16 11 ar
    17 16 15 ar
    18 17 14 1
    19 18 7 1
    20 19 7 1
    21 20 17 1
    22 21 17 1
    23 22 1 1
    24 23 2 1
    25 24 4 1
    26 25 5 1
    27 26 12 1
    28 27 13 1
    29 28 15 1
@<TRIPOS>SUBSTRUCTURE
1     ****    1
@<TRIPOS>MOLECULE
ZINC00002029
19 19 1 0 0 
SMALL
USER_CHARGES


@<TRIPOS>ATOM
      1 C1          5.1480  -10.0950   -2.8850 C.3     1     ****   -0.1500 
      2 C2          5.0900   -8.7230   -2.2830 C.2     1     ****    0.6370 
      3 O1          6.0600   -7.9890   -2.1470 O.2     1     ****   -0.5130 
      4 O2          3.7750   -8.4510   -1.9230 O.3     1     ****   -0.3800 
      5 C3          3.6220   -7.1860   -1.3510 C.ar    1     ****    0.1400 
      6 C4          3.7380   -7.0450    0.0320 C.ar    1     ****   -0.1620 
      7 C5          3.5500   -5.7870    0.6050 C.ar    1     ****   -0.0820 
      8 C6          3.2370   -4.6890   -0.2010 C.ar    1     ****   -0.2150 
      9 C7          3.1090   -4.8580   -1.5810 C.ar    1     ****    0.1350 
     10 C8          3.2940   -6.1060   -2.1690 C.ar    1     ****   -0.1550 
     11 O3          2.7960   -3.8040   -2.3920 O.3     1     ****   -0.4950 
     12 H1          2.7020   -3.0070   -1.8430 H       1     ****    0.4210 
     13 H2          6.1790  -10.3200   -3.1730 H       1     ****    0.0780 
     14 H3          4.8230  -10.8360   -2.1510 H       1     ****    0.0780 
     15 H4          4.5210  -10.1350   -3.7790 H       1     ****    0.0790 
     16 H5          3.9750   -7.8990    0.6590 H       1     ****    0.1470 
     17 H6          3.6440   -5.6610    1.6790 H       1     ****    0.1380 
     18 H7          3.0920   -3.7150    0.2570 H       1     ****    0.1360 
     19 H8          3.1880   -6.2340   -3.2410 H       1     ****    0.1630 
@<TRIPOS>BOND
     1  2 1 1
     2  3 2 2
     3  4 2 1
     4  5 4 1
     5  6 5 ar
     6  7 6 ar
     7  8 7 ar
     8  9 8 ar
     9 10 5 ar
    10 10 9 ar
    11 11 9 1
    12 12 11 1
    13 13 1 1
    14 14 1 1
    15 15 1 1
    16 16 6 1
    17 17 7 1
    18 18 8 1
    19 19 10 1
@<TRIPOS>SUBSTRUCTURE
1     ****    1
@<TRIPOS>MOLECULE
ZINC00002036
32 34 1 0 0 
SMALL
USER_CHARGES


@<TRIPOS>ATOM
      1 C1          4.6980   -6.5730    3.5610 C.3     1     ****   -0.1330 
      2 C2          4.6820   -7.3380    2.2740 C.ar    1     ****    0.7030 
      3 N1          5.4680   -8.4260    2.2070 N.ar    1     ****   -0.7540 
      4 C3          5.3990   -9.0180    1.0070 C.ar    1     ****    0.4780 
      5 C4          4.6420   -8.6190   -0.0910 C.ar    1     ****   -0.3780 
      6 C5          4.9140   -9.5730   -1.1150 C.2     1     ****   -0.1520 
      7 C6          5.8060  -10.4980   -0.6190 C.2     1     ****   -0.1330 
      8 N2          6.0940  -10.1490    0.6710 N.pl3   1     ****   -0.2850 
      9 C7          3.8520   -7.4570    0.0640 C.ar    1     ****    0.7540 
     10 N3          3.9080   -6.8370    1.2830 N.ar    1     ****   -0.8100 
     11 N4          3.0320   -6.8830   -0.8860 N.pl3   1     ****   -0.8790 
     12 C8          2.8280   -7.3710   -2.2300 C.3     1     ****    0.2710 
     13 C9          1.8620   -6.4760   -2.9660 C.ar    1     ****   -0.1190 
     14 C10         2.3270   -5.3650   -3.6830 C.ar    1     ****   -0.1090 
     15 C11         1.4300   -4.5250   -4.3450 C.ar    1     ****   -0.1330 
     16 C12         0.0620   -4.7830   -4.2920 C.ar    1     ****   -0.1180 
     17 C13        -0.4120   -5.8790   -3.5730 C.ar    1     ****   -0.1330 
     18 C14         0.4820   -6.7210   -2.9100 C.ar    1     ****   -0.1110 
     19 H1          6.7210  -10.6450    1.2890 H       1     ****    0.3100 
     20 H2          2.5420   -6.0460   -0.5870 H       1     ****    0.4510 
     21 H3          4.8980   -7.2400    4.4050 H       1     ****    0.0600 
     22 H4          5.4790   -5.8070    3.5250 H       1     ****    0.0570 
     23 H5          3.7340   -6.0850    3.7330 H       1     ****    0.0600 
     24 H6          4.5100   -9.5980   -2.1170 H       1     ****    0.1540 
     25 H7          6.2590  -11.3690   -1.0710 H       1     ****    0.1680 
     26 H8          3.7760   -7.3980   -2.7790 H       1     ****    0.0530 
     27 H9          2.4250   -8.3910   -2.2130 H       1     ****    0.0480 
     28 H10         3.3910   -5.1470   -3.7280 H       1     ****    0.1390 
     29 H11         1.8000   -3.6670   -4.9000 H       1     ****    0.1360 
     30 H12        -0.6350   -4.1280   -4.8060 H       1     ****    0.1340 
     31 H13        -1.4790   -6.0780   -3.5270 H       1     ****    0.1350 
     32 H14         0.0970   -7.5680   -2.3480 H       1     ****    0.1370 
@<TRIPOS>BOND
     1  2 1 1
     2  3 2 ar
     3  4 3 ar
     4  5 4 ar
     5  6 5 1
     6  7 6 2
     7  8 4 1
     8  8 7 1
     9  9 5 ar
    10 10 2 ar
    11 10 9 ar
    12 11 9 1
    13 12 11 1
    14 13 12 1
    15 14 13 ar
    16 15 14 ar
    17 16 15 ar
    18 17 16 ar
    19 18 13 ar
    20 18 17 ar
    21 19 8 1
    22 20 11 1
    23 21 1 1
    24 22 1 1
    25 23 1 1
    26 24 6 1
    27 25 7 1
    28 26 12 1
    29 27 12 1
    30 28 14 1
    31 29 15 1
    32 30 16 1
    33 31 17 1
    34 32 18 1
@<TRIPOS>SUBSTRUCTURE
1     ****    1
@<TRIPOS>MOLECULE
ZINC00002042
35 37 1 0 0 
SMALL
USER_CHARGES


@<TRIPOS>ATOM
      1 C1          7.5600   -8.6680    0.1900 C.3     1     ****   -0.1080 
      2 C2          6.9540   -7.6020    1.0920 C.3     1     ****    0.2260 
      3 N1          5.8190   -8.0370    1.9320 N.pl3   1     ****   -0.5350 
      4 C3          5.2430   -9.2970    1.8900 C.2     1     ****    0.0650 
      5 C4          4.2280   -9.7440    2.6410 C.2     1     ****   -0.2700 
      6 C5          3.6460   -8.8080    3.6310 C.2     1     ****    0.5960 
      7 O1          2.7550   -9.1490    4.4000 O.2     1     ****   -0.5520 
      8 C6          4.2020   -7.4310    3.6720 C.ar    1     ****   -0.2050 
      9 C7          5.2720   -7.0730    2.8270 C.ar    1     ****    0.2000 
     10 C8          5.7440   -5.7460    2.9250 C.ar    1     ****   -0.2000 
     11 C9          5.1920   -4.8020    3.8190 C.ar    1     ****   -0.0210 
     12 C10         4.1330   -5.2130    4.6380 C.ar    1     ****   -0.1880 
     13 C11         3.6390   -6.5140    4.5680 C.ar    1     ****   -0.0500 
     14 C12         5.7150   -3.4250    3.8880 C.ar    1     ****    0.0200 
     15 C13         5.9080   -2.6610    2.7280 C.ar    1     ****   -0.2400 
     16 C14         6.4010   -1.3690    2.8460 C.ar    1     ****    0.3840 
     17 N2          6.7160   -0.7840    4.0210 N.ar    1     ****   -0.6790 
     18 C15         6.5250   -1.5310    5.1280 C.ar    1     ****    0.3840 
     19 C16         6.0360   -2.8300    5.1150 C.ar    1     ****   -0.2370 
     20 C17         3.7010  -11.1690    2.4400 C.2     1     ****    0.9300 
     21 O2          2.4430  -11.2940    2.4840 O.co2   1     ****   -0.7920 
     22 H1          8.4090   -8.2500   -0.3620 H       1     ****    0.0310 
     23 H2          7.9300   -9.5210    0.7690 H       1     ****    0.0600 
     24 H3          6.8360   -9.0300   -0.5470 H       1     ****    0.0540 
     25 H4          7.7620   -7.2380    1.7390 H       1     ****    0.0340 
     26 H5          6.6300   -6.7730    0.4490 H       1     ****    0.0290 
     27 H6          5.6800   -9.9600    1.1540 H       1     ****    0.1760 
     28 H7          6.5730   -5.4160    2.3020 H       1     ****    0.1260 
     29 H8          3.6690   -4.5180    5.3350 H       1     ****    0.1260 
     30 H9          2.8130   -6.7950    5.2160 H       1     ****    0.1570 
     31 H10         5.6710   -3.0540    1.7440 H       1     ****    0.1480 
     32 H11         6.5580   -0.7530    1.9670 H       1     ****    0.0130 
     33 H12         6.7850   -1.0450    6.0630 H       1     ****    0.0140 
     34 H13         5.9200   -3.3660    6.0530 H       1     ****    0.1500 
     35 O3          4.5810  -12.0560    2.2420 O.co2   1     ****   -0.8440 
@<TRIPOS>BOND
     1  2 1 1
     2  3 2 1
     3  4 3 1
     4  5 4 2
     5  6 5 1
     6  7 6 2
     7  8 6 1
     8  9 3 1
     9  9 8 ar
    10 10 9 ar
    11 11 10 ar
    12 12 11 ar
    13 13 8 ar
    14 13 12 ar
    15 14 11 1
    16 15 14 ar
    17 16 15 ar
    18 17 16 ar
    19 18 17 ar
    20 19 14 ar
    21 19 18 ar
    22 20 5 1
    23 21 20 1
    24 22 1 1
    25 23 1 1
    26 24 1 1
    27 25 2 1
    28 26 2 1
    29 27 4 1
    30 28 10 1
    31 29 12 1
    32 30 13 1
    33 31 15 1
    34 32 16 1
    35 33 18 1
    36 34 19 1
    37 35 20 2
@<TRIPOS>SUBSTRUCTURE
1     ****    1
@<TRIPOS>MOLECULE
ZINC00002057
27 28 1 0 0 
SMALL
USER_CHARGES


@<TRIPOS>ATOM
      1 C1          4.6700   -9.3950   -0.6930 C.ar    1     ****   -0.1550 
      2 C2          3.5880   -9.1920    0.1580 C.ar    1     ****   -0.1040 
      3 C3          3.1090   -7.9000    0.3830 C.ar    1     ****   -0.1830 
      4 C4          3.7040   -6.7950   -0.2430 C.ar    1     ****    0.0660 
      5 C5          4.7930   -7.0090   -1.0940 C.ar    1     ****   -0.1520 
      6 C6          5.2710   -8.3040   -1.3170 C.ar    1     ****   -0.1050 
      7 N1          3.1540   -5.5220    0.0450 N.am    1     ****   -0.4600 
      8 C7          3.5420   -4.3000   -0.4850 C.2     1     ****    0.6910 
      9 O1          4.3890   -4.0970   -1.3490 O.2     1     ****   -0.6180 
     10 C8          2.8000   -3.1240    0.0460 C.ar    1     ****   -0.2400 
     11 C9          2.4520   -3.0640    1.4030 C.ar    1     ****   -0.0710 
     12 C10         1.7580   -1.9600    1.9030 C.ar    1     ****   -0.1760 
     13 C11         1.4130   -0.9080    1.0580 C.ar    1     ****   -0.0720 
     14 C12         1.7670   -0.9510   -0.2890 C.ar    1     ****   -0.1710 
     15 C13         2.4650   -2.0500   -0.7920 C.ar    1     ****    0.1970 
     16 O2          2.7800   -2.0120   -2.1240 O.3     1     ****   -0.5000 
     17 H1          2.3720   -5.5320    0.6930 H       1     ****    0.3210 
     18 H2          3.3600   -2.7660   -2.3330 H       1     ****    0.4580 
     19 H3          5.0450  -10.3980   -0.8700 H       1     ****    0.1340 
     20 H4          3.1160  -10.0390    0.6480 H       1     ****    0.1320 
     21 H5          2.2620   -7.7690    1.0530 H       1     ****    0.1280 
     22 H6          5.3020   -6.1960   -1.5990 H       1     ****    0.1730 
     23 H7          6.1180   -8.4600   -1.9800 H       1     ****    0.1350 
     24 H8          2.7280   -3.8570    2.0940 H       1     ****    0.1350 
     25 H9          1.4920   -1.9190    2.9560 H       1     ****    0.1400 
     26 H10         0.8730   -0.0500    1.4500 H       1     ****    0.1400 
     27 H11         1.5020   -0.1240   -0.9420 H       1     ****    0.1570 
@<TRIPOS>BOND
     1  2 1 ar
     2  3 2 ar
     3  4 3 ar
     4  5 4 ar
     5  6 1 ar
     6  6 5 ar
     7  7 4 1
     8  8 7 1
     9  9 8 2
    10 10 8 1
    11 11 10 ar
    12 12 11 ar
    13 13 12 ar
    14 14 13 ar
    15 15 10 ar
    16 15 14 ar
    17 16 15 1
    18 17 7 1
    19 18 16 1
    20 19 1 1
    21 20 2 1
    22 21 3 1
    23 22 5 1
    24 23 6 1
    25 24 11 1
    26 25 12 1
    27 26 13 1
    28 27 14 1
@<TRIPOS>SUBSTRUCTURE
1     ****    1
@<TRIPOS>MOLECULE
ZINC00002058
18 18 1 0 0 
SMALL
USER_CHARGES


@<TRIPOS>ATOM
      1 C1          4.4180   -8.1500    0.5030 C.ar    1     ****   -0.1760 
      2 C2          4.8730   -6.9390    1.0220 C.ar    1     ****   -0.0660 
      3 C3          4.8050   -5.7780    0.2520 C.ar    1     ****   -0.2240 
      4 C4          4.2770   -5.8310   -1.0410 C.ar    1     ****    0.1760 
      5 C5          3.8140   -7.0430   -1.5660 C.ar    1     ****   -0.1850 
      6 C6          3.8910   -8.2060   -0.7890 C.ar    1     ****   -0.0600 
      7 C7          3.2730   -7.1150   -2.9460 C.2     1     ****    0.6130 
      8 O1          3.8160   -6.5020   -3.8600 O.2     1     ****   -0.5370 
      9 N1          2.1510   -7.8930   -3.0890 N.am    1     ****   -0.3510 
     10 O2          1.5880   -7.9830   -4.3720 O.3     1     ****   -0.4400 
     11 O3          4.1920   -4.6840   -1.7810 O.3     1     ****   -0.4760 
     12 H1          1.6460   -8.3590   -2.3430 H       1     ****    0.2960 
     13 H2          1.9970   -7.2290   -4.8320 H       1     ****    0.4350 
     14 H3          4.5680   -3.9480   -1.2690 H       1     ****    0.4250 
     15 H4          4.4790   -9.0540    1.1030 H       1     ****    0.1410 
     16 H5          5.2840   -6.8990    2.0270 H       1     ****    0.1380 
     17 H6          5.1620   -4.8410    0.6710 H       1     ****    0.1400 
     18 H7          3.5630   -9.1670   -1.1770 H       1     ****    0.1500 
@<TRIPOS>BOND
     1  2 1 ar
     2  3 2 ar
     3  4 3 ar
     4  5 4 ar
     5  6 1 ar
     6  6 5 ar
     7  7 5 1
     8  8 7 2
     9  9 7 1
    10 10 9 1
    11 11 4 1
    12 12 9 1
    13 13 10 1
    14 14 11 1
    15 15 1 1
    16 16 2 1
    17 17 3 1
    18 18 6 1
@<TRIPOS>SUBSTRUCTURE
1     ****    1
@<TRIPOS>MOLECULE
ZINC00002077
56 60 1 0 0 
SMALL
USER_CHARGES


@<TRIPOS>ATOM
      1 C1          2.0790   -3.0910   -2.4350 C.3     1     ****   -0.0820 
      2 C2          2.2060   -2.0100   -1.3190 C.3     1     ****   -0.0710 
      3 C3          2.0340   -0.5960   -1.9510 C.3     1     ****   -0.0710 
      4 C4          0.5970   -0.0260   -1.8620 C.3     1     ****   -0.0710 
      5 C5         -0.4410   -1.1620   -1.9070 C.3     1     ****   -0.0560 
      6 C6         -0.3160   -2.0050   -0.6190 C.3     1     ****   -0.0460 
      7 C7          1.1650   -2.1740   -0.1950 C.3     1     ****   -0.0580 
      8 C8          1.6440   -3.4330    0.5300 C.3     1     ****   -0.0770 
      9 C9          3.1930   -3.3720    0.4260 C.3     1     ****   -0.1140 
     10 C10         3.5420   -2.2070   -0.5480 C.3     1     ****    0.1550 
     11 C11         4.7730   -2.5010   -1.3990 C.3     1     ****   -0.0790 
     12 O1          3.8560   -1.0400    0.2200 O.3     1     ****   -0.5970 
     13 C12        -1.0870   -3.3170   -0.8110 C.3     1     ****   -0.0700 
     14 C13        -2.5700   -3.0060   -1.0690 C.3     1     ****   -0.0750 
     15 C14        -2.7940   -2.0310   -2.2500 C.3     1     ****   -0.0510 
     16 C15        -1.9240   -0.7010   -2.0960 C.3     1     ****   -0.0340 
     17 C16        -2.0610    0.1390   -3.4250 C.3     1     ****    0.0070 
     18 C17        -3.4660    0.1820   -3.9110 C.2     1     ****   -0.2500 
     19 C18        -4.1160    0.9820   -4.8680 C.2     1     ****    0.3040 
     20 N1         -5.4110    0.6720   -5.0010 N.2     1     ****   -0.5210 
     21 N2         -5.5860   -0.3340   -4.1230 N.pl3   1     ****   -0.0110 
     22 C19        -4.4490   -0.6620   -3.4520 C.2     1     ****   -0.1100 
     23 C20        -4.2980   -1.7040   -2.4110 C.3     1     ****   -0.0060 
     24 C21        -2.4090    0.1960   -0.9260 C.3     1     ****   -0.0880 
     25 H1          3.2400   -0.9720    0.9680 H       1     ****    0.4000 
     26 H2         -6.5090   -0.7440   -4.0360 H       1     ****    0.3190 
     27 H3          2.7750   -2.8810   -3.2550 H       1     ****    0.0370 
     28 H4          2.3230   -4.0930   -2.0650 H       1     ****    0.0340 
     29 H5          1.0930   -3.1760   -2.8840 H       1     ****    0.0400 
     30 H6          2.7050    0.1390   -1.4930 H       1     ****    0.0590 
     31 H7          2.3320   -0.6290   -3.0080 H       1     ****    0.0430 
     32 H8          0.4990    0.5440   -0.9300 H       1     ****    0.0390 
     33 H9          0.4610    0.6860   -2.6820 H       1     ****    0.0440 
     34 H10        -0.1560   -1.7350   -2.8000 H       1     ****    0.0530 
     35 H11        -0.8380   -1.5260    0.2270 H       1     ****    0.0470 
     36 H12         1.2660   -1.3770    0.5690 H       1     ****    0.0340 
     37 H13         1.3150   -3.4540    1.5740 H       1     ****    0.0440 
     38 H14         1.2860   -4.3500    0.0500 H       1     ****    0.0470 
     39 H15         3.6300   -3.2080    1.4180 H       1     ****    0.0540 
     40 H16         3.5600   -4.3360    0.0550 H       1     ****    0.0520 
     41 H17         5.6700   -2.5480   -0.7710 H       1     ****    0.0500 
     42 H18         4.6990   -3.4480   -1.9410 H       1     ****    0.0400 
     43 H19         4.9430   -1.6970   -2.1240 H       1     ****    0.0470 
     44 H20        -0.6820   -3.9010   -1.6440 H       1     ****    0.0450 
     45 H21        -1.0210   -3.9410    0.0880 H       1     ****    0.0420 
     46 H22        -3.0970   -3.9460   -1.2730 H       1     ****    0.0390 
     47 H23        -3.0180   -2.5980   -0.1550 H       1     ****    0.0410 
     48 H24        -2.4540   -2.5930   -3.1430 H       1     ****    0.0550 
     49 H25        -1.6950    1.1610   -3.2750 H       1     ****    0.0530 
     50 H26        -1.4470   -0.3160   -4.2130 H       1     ****    0.0500 
     51 H27        -3.7050    1.7760   -5.4750 H       1     ****    0.0420 
     52 H28        -4.8420   -2.6110   -2.6980 H       1     ****    0.0500 
     53 H29        -4.7280   -1.3520   -1.4660 H       1     ****    0.0580 
     54 H30        -3.3860    0.6460   -1.1320 H       1     ****    0.0440 
     55 H31        -2.5200   -0.3480    0.0150 H       1     ****    0.0330 
     56 H32        -1.7210    1.0290   -0.7520 H       1     ****    0.0380 
@<TRIPOS>BOND
     1  2 1 1
     2  3 2 1
     3  4 3 1
     4  5 4 1
     5  6 5 1
     6  7 2 1
     7  7 6 1
     8  8 7 1
     9  9 8 1
    10 10 2 1
    11 10 9 1
    12 11 10 1
    13 12 10 1
    14 13 6 1
    15 14 13 1
    16 15 14 1
    17 16 5 1
    18 16 15 1
    19 17 16 1
    20 18 17 1
    21 19 18 1
    22 20 19 2
    23 21 20 1
    24 22 18 ar
    25 22 21 1
    26 23 15 1
    27 23 22 1
    28 24 16 1
    29 25 12 1
    30 26 21 1
    31 27 1 1
    32 28 1 1
    33 29 1 1
    34 30 3 1
    35 31 3 1
    36 32 4 1
    37 33 4 1
    38 34 5 1
    39 35 6 1
    40 36 7 1
    41 37 8 1
    42 38 8 1
    43 39 9 1
    44 40 9 1
    45 41 11 1
    46 42 11 1
    47 43 11 1
    48 44 13 1
    49 45 13 1
    50 46 14 1
    51 47 14 1
    52 48 15 1
    53 49 17 1
    54 50 17 1
    55 51 19 1
    56 52 23 1
    57 53 23 1
    58 54 24 1
    59 55 24 1
    60 56 24 1
@<TRIPOS>SUBSTRUCTURE
1     ****    1
@<TRIPOS>MOLECULE
ZINC00002083
33 35 1 0 0 
SMALL
USER_CHARGES


@<TRIPOS>ATOM
      1 C1          4.3240   -4.0900    3.8380 C.3     1     ****    0.1910 
      2 N1          4.3800   -5.2590    2.9040 N.3     1     ****   -0.8000 
      3 C2          4.6630   -6.5410    3.6120 C.3     1     ****    0.0940 
      4 C3          4.7220   -7.7360    2.6690 C.2     1     ****    0.5630 
      5 C4          4.3700   -7.6230    1.2320 C.ar    1     ****   -0.0650 
      6 C5          4.8020   -8.6260    0.3540 C.ar    1     ****   -0.0890 
      7 C6          4.4830   -8.5630   -1.0050 C.ar    1     ****   -0.0820 
      8 C7          3.7270   -7.5000   -1.4970 C.ar    1     ****   -0.1210 
      9 C8          3.2870   -6.5010   -0.6330 C.ar    1     ****   -0.0260 
     10 C9          3.6080   -6.5760    0.7250 C.ar    1     ****   -0.3230 
     11 S1          3.0610   -5.3090    1.7980 S.o2    1     ****    1.5170 
     12 O1          1.8780   -5.8040    2.4730 O.3     1     ****   -0.6390 
     13 O2          3.0420   -4.0710    1.0450 O.3     1     ****   -0.6440 
     14 O3          5.0740   -8.8380    3.0960 O.2     1     ****   -0.4930 
     15 C10         6.0160   -6.3950    4.3050 C.2     1     ****    0.6680 
     16 O4          7.0340   -6.1740    3.6530 O.2     1     ****   -0.5690 
     17 N2          5.9090   -6.5480    5.6820 N.am    1     ****   -0.5120 
     18 C11         6.9310   -6.4690    6.6100 C.2     1     ****    0.4730 
     19 N3          6.7230   -6.6320    7.9000 N.2     1     ****   -0.6810 
     20 C12         7.9150   -6.4980    8.5830 C.2     1     ****    0.3550 
     21 C13         9.0200   -6.2320    7.8050 C.2     1     ****   -0.3120 
     22 S2          8.5490   -6.1470    6.1620 S.2     1     ****    0.0270 
     23 H1          3.8520   -6.7770    4.3180 H       1     ****    0.0900 
     24 H2          5.0000   -6.7420    6.0910 H       1     ****    0.3470 
     25 H3          4.0090   -3.1870    3.3080 H       1     ****    0.0780 
     26 H4          3.6290   -4.2850    4.6590 H       1     ****    0.0430 
     27 H5          5.3180   -3.8810    4.2430 H       1     ****    0.0630 
     28 H6          5.3970   -9.4650    0.7080 H       1     ****    0.1640 
     29 H7          4.8250   -9.3430   -1.6790 H       1     ****    0.1470 
     30 H8          3.4800   -7.4530   -2.5540 H       1     ****    0.1490 
     31 H9          2.6940   -5.6800   -1.0280 H       1     ****    0.1620 
     32 H10         7.9230   -6.6040    9.6590 H       1     ****    0.0450 
     33 H11        10.0450   -6.0880    8.1140 H       1     ****    0.1830 
@<TRIPOS>BOND
     1  2 1 1
     2  3 2 1
     3  4 3 1
     4  5 4 1
     5  6 5 ar
     6  7 6 ar
     7  8 7 ar
     8  9 8 ar
     9 10 5 ar
    10 10 9 ar
    11 11 2 1
    12 11 10 1
    13 12 11 1
    14 13 11 1
    15 14 4 2
    16 15 3 1
    17 16 15 2
    18 17 15 1
    19 18 17 1
    20 19 18 2
    21 20 19 1
    22 21 20 2
    23 22 18 1
    24 22 21 1
    25 23 3 1
    26 24 17 1
    27 25 1 1
    28 26 1 1
    29 27 1 1
    30 28 6 1
    31 29 7 1
    32 30 8 1
    33 31 9 1
    34 32 20 1
    35 33 21 1
@<TRIPOS>SUBSTRUCTURE
1     ****    1
@<TRIPOS>MOLECULE
ZINC00002087
40 42 1 0 0 
SMALL
USER_CHARGES


@<TRIPOS>ATOM
      1 C1          6.3840   -9.7640    0.6950 C.ar    1     ****   -0.0800 
      2 C2          5.8210   -9.6440    1.9640 C.ar    1     ****   -0.1170 
      3 C3          4.7640   -8.7590    2.1800 C.ar    1     ****   -0.0990 
      4 C4          4.2610   -7.9840    1.1260 C.ar    1     ****   -0.1860 
      5 C5          4.8340   -8.1140   -0.1480 C.ar    1     ****   -0.1160 
      6 C6          5.8910   -9.0000   -0.3600 C.ar    1     ****   -0.1130 
      7 C7          3.1300   -7.0170    1.3580 C.3     1     ****    0.1790 
      8 C8          4.4510   -5.1350    2.3710 C.3     1     ****    0.2740 
      9 N1          4.9690   -3.7720    2.2360 N.am    1     ****   -0.4180 
     10 C9          4.2630   -2.7110    1.6380 C.2     1     ****    0.3140 
     11 S1          4.7330   -1.0850    1.6370 S.2     1     ****   -0.1480 
     12 S2          2.7890   -3.0730    0.7300 S.3     1     ****   -0.0980 
     13 C10         2.3210   -4.6820    1.3220 C.3     1     ****    0.0790 
     14 C11         6.2610   -3.5630    2.9330 C.3     1     ****    0.1230 
     15 C12         6.1690   -3.7480    4.4290 C.ar    1     ****   -0.1620 
     16 C13         6.7590   -4.8640    5.0420 C.ar    1     ****   -0.1230 
     17 C14         6.6660   -5.0470    6.4220 C.ar    1     ****   -0.1250 
     18 C15         5.9840   -4.1190    7.2050 C.ar    1     ****   -0.1000 
     19 C16         5.3960   -3.0050    6.6090 C.ar    1     ****   -0.1210 
     20 C17         5.4870   -2.8200    5.2280 C.ar    1     ****   -0.1100 
     21 H1          7.2070  -10.4540    0.5290 H       1     ****    0.1630 
     22 H2          6.2060  -10.2410    2.7870 H       1     ****    0.1610 
     23 H3          4.3390   -8.6780    3.1770 H       1     ****    0.1430 
     24 H4          4.4600   -7.5270   -0.9840 H       1     ****    0.1330 
     25 H5          6.3290   -9.0950   -1.3500 H       1     ****    0.1610 
     26 H6          2.3640   -7.1870    0.5920 H       1     ****    0.1110 
     27 H7          2.6630   -7.1690    2.3390 H       1     ****    0.1040 
     28 H8          3.9270   -5.2330    3.3290 H       1     ****    0.1050 
     29 H9          5.3010   -5.8240    2.3430 H       1     ****    0.1310 
     30 H10         1.5680   -5.0990    0.6470 H       1     ****    0.1320 
     31 H11         1.9220   -4.6590    2.3430 H       1     ****    0.1210 
     32 H12         6.9730   -4.2790    2.5020 H       1     ****    0.0750 
     33 H13         6.6910   -2.5790    2.7290 H       1     ****    0.1140 
     34 H14         7.2950   -5.6000    4.4480 H       1     ****    0.1300 
     35 H15         7.1260   -5.9150    6.8870 H       1     ****    0.1480 
     36 H16         5.9120   -4.2610    8.2800 H       1     ****    0.1520 
     37 H17         4.8660   -2.2790    7.2190 H       1     ****    0.1520 
     38 H18         5.0230   -1.9440    4.7850 H       1     ****    0.1430 
     39 N2          3.5260   -5.5440    1.2750 N.4     1     ****   -0.6960 
     40 H19         4.0190   -5.4440    0.3730 H       1     ****    0.4600 
@<TRIPOS>BOND
     1  2 1 ar
     2  3 2 ar
     3  4 3 ar
     4  5 4 ar
     5  6 1 ar
     6  6 5 ar
     7  7 4 1
     8  9 8 1
     9 10 9 1
    10 11 10 2
    11 12 10 1
    12 13 12 1
    13 14 9 1
    14 15 14 1
    15 16 15 ar
    16 17 16 ar
    17 18 17 ar
    18 19 18 ar
    19 20 15 ar
    20 20 19 ar
    21 21 1 1
    22 22 2 1
    23 23 3 1
    24 24 5 1
    25 25 6 1
    26 26 7 1
    27 27 7 1
    28 28 8 1
    29 29 8 1
    30 30 13 1
    31 31 13 1
    32 32 14 1
    33 33 14 1
    34 34 16 1
    35 35 17 1
    36 36 18 1
    37 37 19 1
    38 38 20 1
    39 39 7 1
    40 39 8 1
    41 39 13 1
    42 40 39 1
@<TRIPOS>SUBSTRUCTURE
1     ****    1
@<TRIPOS>MOLECULE
ZINC00002104
27 28 1 0 0 
SMALL
USER_CHARGES


@<TRIPOS>ATOM
      1 C1          4.5980   -8.4600    0.9500 C.ar    1     ****   -0.2470 
      2 C2          3.8910   -7.2790    0.7110 C.ar    1     ****    0.0420 
      3 C3          4.2570   -6.4700   -0.3630 C.ar    1     ****   -0.4900 
      4 C4          5.3070   -6.8310   -1.2040 C.ar    1     ****    0.0460 
      5 C5          6.0070   -8.0140   -0.9560 C.ar    1     ****   -0.2480 
      6 C6          5.6570   -8.8440    0.1170 C.ar    1     ****    0.2660 
      7 N1          6.3680  -10.0080    0.3710 N.pl3   1     ****   -0.8640 
      8 S1          3.3510   -4.9860   -0.6910 S.o2    1     ****    1.5400 
      9 O1          3.4620   -4.7120   -2.1100 O.3     1     ****   -0.6570 
     10 O2          2.0490   -5.1260   -0.0690 O.3     1     ****   -0.6540 
     11 N2          4.2760   -3.8560    0.1790 N.pl3   1     ****   -0.8660 
     12 C7          3.7400   -2.5540    0.4250 C.ar    1     ****    0.5560 
     13 C8          2.9290   -1.8640   -0.4570 C.ar    1     ****    0.2450 
     14 N3          2.5100   -0.6030   -0.2100 N.ar    1     ****   -0.5970 
     15 C9          2.9470   -0.0490    0.9380 C.ar    1     ****    0.2420 
     16 C10         3.7790   -0.7240    1.8040 C.ar    1     ****    0.3160 
     17 N4          4.1990   -1.9820    1.5580 N.ar    1     ****   -0.6810 
     18 H1          7.1070  -10.3020   -0.2530 H       1     ****    0.4350 
     19 H2          6.0900  -10.6230    1.1230 H       1     ****    0.4350 
     20 H3          4.8760   -4.2010    0.9370 H       1     ****    0.4620 
     21 H4          4.3130   -9.0830    1.7940 H       1     ****    0.1430 
     22 H5          3.0730   -7.0100    1.3730 H       1     ****    0.1550 
     23 H6          5.6000   -6.2100   -2.0450 H       1     ****    0.1570 
     24 H7          6.8310   -8.2870   -1.6110 H       1     ****    0.1420 
     25 H8          2.5870   -2.2790   -1.3970 H       1     ****    0.0550 
     26 H9          2.6110    0.9620    1.1380 H       1     ****    0.0360 
     27 H10         4.1360   -0.2740    2.7220 H       1     ****    0.0320 
@<TRIPOS>BOND
     1  2 1 ar
     2  3 2 ar
     3  4 3 ar
     4  5 4 ar
     5  6 1 ar
     6  6 5 ar
     7  7 6 1
     8  8 3 1
     9  9 8 1
    10 10 8 1
    11 11 8 1
    12 12 11 1
    13 13 12 ar
    14 14 13 ar
    15 15 14 ar
    16 16 15 ar
    17 17 12 ar
    18 17 16 ar
    19 18 7 1
    20 19 7 1
    21 20 11 1
    22 21 1 1
    23 22 2 1
    24 23 4 1
    25 24 5 1
    26 25 13 1
    27 26 15 1
    28 27 16 1
@<TRIPOS>SUBSTRUCTURE
1     ****    1
@<TRIPOS>MOLECULE
ZINC00002105
28 29 1 0 0 
SMALL
USER_CHARGES


@<TRIPOS>ATOM
      1 C1          5.6650   -8.7750   -1.4950 C.ar    1     ****   -0.0580 
      2 C2          4.6080   -9.6470   -1.2690 C.ar    1     ****   -0.2800 
      3 C3          3.5380   -9.1860   -0.5210 C.ar    1     ****    0.4270 
      4 N1          3.4590   -7.9390   -0.0050 N.ar    1     ****   -0.7100 
      5 C4          4.4900   -7.1040   -0.2660 C.ar    1     ****    0.6660 
      6 C5          5.6190   -7.4820   -0.9800 C.ar    1     ****   -0.2880 
      7 N2          4.3530   -5.8290    0.3700 N.pl3   1     ****   -0.8770 
      8 S1          4.9590   -4.4440   -0.4100 S.o2    1     ****    1.5410 
      9 O1          6.3860   -4.3370   -0.1720 O.3     1     ****   -0.6620 
     10 O2          4.4330   -4.3770   -1.7600 O.3     1     ****   -0.6570 
     11 C6          4.1680   -3.1710    0.5290 C.ar    1     ****   -0.4860 
     12 C7          4.7920   -2.6730    1.6720 C.ar    1     ****    0.0450 
     13 C8          4.1760   -1.6520    2.3990 C.ar    1     ****   -0.2510 
     14 C9          2.9430   -1.1250    1.9930 C.ar    1     ****    0.2700 
     15 C10         2.3420   -1.6310    0.8340 C.ar    1     ****   -0.2500 
     16 C11         2.9490   -2.6520    0.0980 C.ar    1     ****    0.0430 
     17 N3          2.3430   -0.1010    2.7100 N.pl3   1     ****   -0.8730 
     18 H1          3.4800   -5.7360    0.9020 H       1     ****    0.4610 
     19 H2          2.7650    0.2430    3.5630 H       1     ****    0.4370 
     20 H3          1.4400    0.2580    2.4320 H       1     ****    0.4370 
     21 H4          6.5300   -9.1030   -2.0660 H       1     ****    0.1420 
     22 H5          4.6230  -10.6580   -1.6590 H       1     ****    0.1450 
     23 H6          2.6900   -9.8280   -0.3070 H       1     ****    0.0210 
     24 H7          6.4570   -6.8140   -1.1410 H       1     ****    0.1640 
     25 H8          5.7460   -3.0640    2.0130 H       1     ****    0.1560 
     26 H9          4.6680   -1.2690    3.2900 H       1     ****    0.1410 
     27 H10         1.3900   -1.2300    0.4920 H       1     ****    0.1410 
     28 H11         2.4560   -3.0240   -0.7950 H       1     ****    0.1540 
@<TRIPOS>BOND
     1  2 1 ar
     2  3 2 ar
     3  4 3 ar
     4  5 4 ar
     5  6 1 ar
     6  6 5 ar
     7  7 5 1
     8  8 7 1
     9  9 8 1
    10 10 8 1
    11 11 8 1
    12 12 11 ar
    13 13 12 ar
    14 14 13 ar
    15 15 14 ar
    16 16 11 ar
    17 16 15 ar
    18 17 14 1
    19 18 7 1
    20 19 17 1
    21 20 17 1
    22 21 1 1
    23 22 2 1
    24 23 3 1
    25 24 6 1
    26 25 12 1
    27 26 13 1
    28 27 15 1
    29 28 16 1
@<TRIPOS>SUBSTRUCTURE
1     ****    1
@<TRIPOS>MOLECULE
ZINC00002106
33 35 1 0 0 
SMALL
USER_CHARGES


@<TRIPOS>ATOM
      1 C1          1.1100   -8.9130   -2.7500 C.ar    1     ****   -0.1380 
      2 C2          0.7260   -8.4060   -1.5180 C.ar    1     ****   -0.1140 
      3 C3          1.0510   -7.0920   -1.1830 C.ar    1     ****   -0.1730 
      4 C4          1.7560   -6.2750   -2.0620 C.ar    1     ****    0.3260 
      5 C5          2.1480   -6.7910   -3.3120 C.ar    1     ****    0.2550 
      6 C6          1.8180   -8.1030   -3.6370 C.ar    1     ****   -0.1430 
      7 N1          2.8360   -6.0320   -4.1830 N.ar    1     ****   -0.5960 
      8 C7          3.1260   -4.7670   -3.8170 C.ar    1     ****    0.2810 
      9 C8          2.7180   -4.2530   -2.6090 C.ar    1     ****    0.5690 
     10 N2          2.0560   -5.0110   -1.7140 N.ar    1     ****   -0.6930 
     11 N3          3.0570   -2.9520   -2.1250 N.pl3   1     ****   -0.8680 
     12 S1          3.2040   -1.6660   -3.2270 S.o2    1     ****    1.5410 
     13 O1          4.5000   -1.7280   -3.8730 O.3     1     ****   -0.6590 
     14 O2          1.9930   -1.5680   -4.0190 O.3     1     ****   -0.6530 
     15 C9          3.2260   -0.2870   -2.1200 C.ar    1     ****   -0.4920 
     16 C10         2.0350    0.3660   -1.8060 C.ar    1     ****    0.0420 
     17 C11         2.0650    1.4670   -0.9480 C.ar    1     ****   -0.2470 
     18 C12         3.2720    1.9230   -0.4040 C.ar    1     ****    0.2680 
     19 C13         4.4580    1.2590   -0.7440 C.ar    1     ****   -0.2490 
     20 C14         4.4410    0.1560   -1.6010 C.ar    1     ****    0.0460 
     21 N4          3.2970    3.0240    0.4370 N.pl3   1     ****   -0.8650 
     22 H1          2.6810   -2.7500   -1.1920 H       1     ****    0.4610 
     23 H2          2.4370    3.4880    0.7000 H       1     ****    0.4360 
     24 H3          4.1660    3.3370    0.8470 H       1     ****    0.4360 
     25 H4          0.8630   -9.9350   -3.0230 H       1     ****    0.1380 
     26 H5          0.1750   -9.0260   -0.8170 H       1     ****    0.1360 
     27 H6          0.7450   -6.7040   -0.2140 H       1     ****    0.1500 
     28 H7          2.1160   -8.5120   -4.6000 H       1     ****    0.1520 
     29 H8          3.7040   -4.2050   -4.5400 H       1     ****    0.0540 
     30 H9          1.0830    0.0360   -2.2100 H       1     ****    0.1550 
     31 H10         1.1320    1.9720   -0.7060 H       1     ****    0.1430 
     32 H11         5.4100    1.5980   -0.3410 H       1     ****    0.1430 
     33 H12         5.3760   -0.3400   -1.8440 H       1     ****    0.1580 
@<TRIPOS>BOND
     1  2 1 ar
     2  3 2 ar
     3  4 3 ar
     4  5 4 ar
     5  6 1 ar
     6  6 5 ar
     7  7 5 ar
     8  8 7 ar
     9  9 8 ar
    10 10 4 ar
    11 10 9 ar
    12 11 9 1
    13 12 11 1
    14 13 12 1
    15 14 12 1
    16 15 12 1
    17 16 15 ar
    18 17 16 ar
    19 18 17 ar
    20 19 18 ar
    21 20 15 ar
    22 20 19 ar
    23 21 18 1
    24 22 11 1
    25 23 21 1
    26 24 21 1
    27 25 1 1
    28 26 2 1
    29 27 3 1
    30 28 6 1
    31 29 8 1
    32 30 16 1
    33 31 17 1
    34 32 19 1
    35 33 20 1
@<TRIPOS>SUBSTRUCTURE
1     ****    1
@<TRIPOS>MOLECULE
ZINC00002155
25 25 1 0 0 
SMALL
USER_CHARGES


@<TRIPOS>ATOM
      1 C1          6.3530   -1.8360    2.7050 C.3     1     ****   -0.1040 
      2 C2          6.5460   -3.3050    2.3450 C.3     1     ****   -0.0720 
      3 C3          5.2470   -4.1680    2.2590 C.3     1     ****   -0.1720 
      4 C4          4.6680   -4.2660    3.6720 C.2     1     ****    0.7010 
      5 O1          3.8730   -3.4440    4.1290 O.2     1     ****   -0.5780 
      6 N1          5.1470   -5.3120    4.4380 N.am    1     ****   -0.5600 
      7 C5          5.8530   -6.3970    3.9770 C.2     1     ****    0.5550 
      8 S1          6.3560   -7.6130    5.0050 S.2     1     ****   -0.4460 
      9 N2          6.0860   -6.4570    2.6240 N.am    1     ****   -0.5600 
     10 C6          5.7170   -5.5100    1.6870 C.2     1     ****    0.6980 
     11 O2          5.8390   -5.7150    0.4790 O.2     1     ****   -0.5770 
     12 C7          4.2140   -3.5250    1.2990 C.3     1     ****   -0.0670 
     13 C8          2.9530   -4.3610    1.0860 C.3     1     ****   -0.1060 
     14 H1          4.8770   -5.3210    5.4160 H       1     ****    0.3650 
     15 H2          6.5140   -7.3060    2.2680 H       1     ****    0.3650 
     16 H3          7.3290   -1.3450    2.7830 H       1     ****    0.0470 
     17 H4          5.7830   -1.3040    1.9390 H       1     ****    0.0450 
     18 H5          5.8470   -1.7170    3.6670 H       1     ****    0.0590 
     19 H6          7.0760   -3.3460    1.3830 H       1     ****    0.0710 
     20 H7          7.2330   -3.7450    3.0810 H       1     ****    0.0520 
     21 H8          3.8940   -2.5470    1.6800 H       1     ****    0.0750 
     22 H9          4.6750   -3.3410    0.3200 H       1     ****    0.0720 
     23 H10         2.2670   -3.8330    0.4160 H       1     ****    0.0510 
     24 H11         3.1790   -5.3290    0.6300 H       1     ****    0.0440 
     25 H12         2.4250   -4.5400    2.0270 H       1     ****    0.0410 
@<TRIPOS>BOND
     1  2 1 1
     2  3 2 1
     3  4 3 1
     4  5 4 2
     5  6 4 1
     6  7 6 1
     7  8 7 2
     8  9 7 1
     9 10 3 1
    10 10 9 1
    11 11 10 2
    12 12 3 1
    13 13 12 1
    14 14 6 1
    15 15 9 1
    16 16 1 1
    17 17 1 1
    18 18 1 1
    19 19 2 1
    20 20 2 1
    21 21 12 1
    22 22 12 1
    23 23 13 1
    24 24 13 1
    25 25 13 1
@<TRIPOS>SUBSTRUCTURE
1     ****    1
@<TRIPOS>MOLECULE
ZINC00002162
28 29 1 0 0 
SMALL
USER_CHARGES


@<TRIPOS>ATOM
      1 C1          6.5040   -9.0660   -0.9030 C.ar    1     ****   -0.1210 
      2 C2          5.9210   -8.4640   -2.0170 C.ar    1     ****   -0.1310 
      3 C3          4.7730   -7.6830   -1.8690 C.ar    1     ****   -0.1100 
      4 C4          4.1950   -7.5020   -0.6040 C.ar    1     ****   -0.0830 
      5 C5          4.7940   -8.1080    0.5100 C.ar    1     ****   -0.1120 
      6 C6          5.9410   -8.8880    0.3590 C.ar    1     ****   -0.1310 
      7 C7          2.9660   -6.6460   -0.4410 C.3     1     ****    0.0350 
      8 S1          3.4000   -4.9090   -0.1350 S.3     1     ****   -0.2410 
      9 C8          1.7930   -4.2010    0.0170 C.2     1     ****    0.5820 
     10 O1          0.7770   -4.8720   -0.1200 O.2     1     ****   -0.5400 
     11 C9          1.6970   -2.7410    0.2900 C.ar    1     ****   -0.1680 
     12 C10         2.7410   -1.9940    0.8530 C.ar    1     ****   -0.0830 
     13 C11         2.5780   -0.6270    1.0910 C.ar    1     ****   -0.1430 
     14 C12         1.3770    0.0040    0.7750 C.ar    1     ****   -0.0990 
     15 C13         0.3320   -0.7320    0.2230 C.ar    1     ****   -0.1450 
     16 C14         0.4880   -2.0990   -0.0170 C.ar    1     ****   -0.0700 
     17 H1          7.3970   -9.6730   -1.0190 H       1     ****    0.1330 
     18 H2          6.3610   -8.6000   -3.0000 H       1     ****    0.1340 
     19 H3          4.3330   -7.2160   -2.7460 H       1     ****    0.1370 
     20 H4          4.3700   -7.9750    1.5020 H       1     ****    0.1360 
     21 H5          6.3970   -9.3550    1.2280 H       1     ****    0.1340 
     22 H6          2.3470   -6.7160   -1.3420 H       1     ****    0.0870 
     23 H7          2.3620   -7.0250    0.3920 H       1     ****    0.0830 
     24 H8          3.6880   -2.4470    1.1310 H       1     ****    0.1510 
     25 H9          3.3910   -0.0540    1.5280 H       1     ****    0.1380 
     26 H10         1.2550    1.0670    0.9620 H       1     ****    0.1350 
     27 H11        -0.6070   -0.2430   -0.0220 H       1     ****    0.1380 
     28 H12        -0.3440   -2.6480   -0.4510 H       1     ****    0.1550 
@<TRIPOS>BOND
     1  2 1 ar
     2  3 2 ar
     3  4 3 ar
     4  5 4 ar
     5  6 1 ar
     6  6 5 ar
     7  7 4 1
     8  8 7 1
     9  9 8 1
    10 10 9 2
    11 11 9 1
    12 12 11 ar
    13 13 12 ar
    14 14 13 ar
    15 15 14 ar
    16 16 11 ar
    17 16 15 ar
    18 17 1 1
    19 18 2 1
    20 19 3 1
    21 20 5 1
    22 21 6 1
    23 22 7 1
    24 23 7 1
    25 24 12 1
    26 25 13 1
    27 26 14 1
    28 27 15 1
    29 28 16 1
@<TRIPOS>SUBSTRUCTURE
1     ****    1
@<TRIPOS>MOLECULE
ZINC00002192
33 35 1 0 0 
SMALL
USER_CHARGES


@<TRIPOS>ATOM
      1 C1         -0.3620   -0.6940    1.6220 C.3     1     ****   -0.0530 
      2 C2          0.7200   -0.1100    0.7550 C.ar    1     ****   -0.0700 
      3 C3          0.7950   -0.5210   -0.5880 C.ar    1     ****   -0.1370 
      4 C4          1.7640    0.0080   -1.4400 C.ar    1     ****    0.0160 
      5 C5          2.6670    0.9550   -0.9730 C.ar    1     ****   -0.1290 
      6 C6          2.6060    1.3660    0.3590 C.ar    1     ****   -0.0920 
      7 C7          1.6540    0.8290    1.2480 C.ar    1     ****   -0.0980 
      8 C8          1.6190    1.3180    2.6800 C.3     1     ****    0.1060 
      9 N1          2.9290    1.2800    3.3190 N.pl3   1     ****    0.0530 
     10 C9          3.6080    0.1690    3.7570 C.ar    1     ****   -0.0590 
     11 C10         3.2980   -1.1970    3.7160 C.ar    1     ****   -0.1690 
     12 C11         4.2290   -2.0900    4.2520 C.ar    1     ****   -0.1150 
     13 C12         5.4220   -1.6340    4.8060 C.ar    1     ****   -0.1980 
     14 C13         5.7170   -0.2660    4.8420 C.ar    1     ****   -0.0330 
     15 C14         4.7940    0.6560    4.3080 C.ar    1     ****   -0.1890 
     16 C15         4.7090    2.0690    4.1540 C.2     1     ****    0.3430 
     17 N2          3.5660    2.4400    3.5610 N.2     1     ****   -0.5210 
     18 C16         5.7380    3.0600    4.5880 C.2     1     ****    0.8530 
     19 O1          5.4850    4.2840    4.3570 O.co2   1     ****   -0.7890 
     20 CL1         1.8350   -0.5070   -3.0810 Cl      1     ****   -0.1240 
     21 H1         -1.0400   -1.3330    1.0470 H       1     ****    0.0350 
     22 H2          0.0740   -1.3070    2.4160 H       1     ****    0.0510 
     23 H3         -0.9690    0.1040    2.0630 H       1     ****    0.0430 
     24 H4          0.0870   -1.2530   -0.9700 H       1     ****    0.1350 
     25 H5          3.4200    1.3830   -1.6290 H       1     ****    0.1470 
     26 H6          3.3160    2.1170    0.6990 H       1     ****    0.1750 
     27 H7          1.2520    2.3510    2.7040 H       1     ****    0.0790 
     28 H8          0.9600    0.7220    3.3190 H       1     ****    0.0490 
     29 H9          2.3730   -1.5600    3.2830 H       1     ****    0.1150 
     30 H10         4.0190   -3.1570    4.2340 H       1     ****    0.1070 
     31 H11         6.1330   -2.3460    5.2180 H       1     ****    0.1140 
     32 H12         6.6540    0.0650    5.2810 H       1     ****    0.1810 
     33 O2          6.7840    2.6120    5.1520 O.co2   1     ****   -0.8250 
@<TRIPOS>BOND
     1  2 1 1
     2  3 2 ar
     3  4 3 ar
     4  5 4 ar
     5  6 5 ar
     6  7 2 ar
     7  7 6 ar
     8  8 7 1
     9  9 8 1
    10 10 9 1
    11 11 10 ar
    12 12 11 ar
    13 13 12 ar
    14 14 13 ar
    15 15 10 ar
    16 15 14 ar
    17 16 15 1
    18 17 9 1
    19 17 16 2
    20 18 16 1
    21 19 18 1
    22 20 4 1
    23 21 1 1
    24 22 1 1
    25 23 1 1
    26 24 3 1
    27 25 5 1
    28 26 6 1
    29 27 8 1
    30 28 8 1
    31 29 11 1
    32 30 12 1
    33 31 13 1
    34 32 14 1
    35 33 18 2
@<TRIPOS>SUBSTRUCTURE
1     ****    1
@<TRIPOS>MOLECULE
ZINC00002214
20 20 1 0 0 
SMALL
USER_CHARGES


@<TRIPOS>ATOM
      1 C1          3.4520   -6.0300    2.0230 C.ar    1     ****   -0.1350 
      2 C2          4.3930   -7.0540    2.1510 C.ar    1     ****   -0.1880 
      3 C3          4.8520   -7.7040    1.0110 C.ar    1     ****    0.1070 
      4 C4          4.3830   -7.3420   -0.2470 C.ar    1     ****   -0.1320 
      5 C5          3.4400   -6.3160   -0.3720 C.ar    1     ****   -0.1160 
      6 C6          2.9660   -5.6500    0.7620 C.ar    1     ****    0.0270 
      7 N1          2.0150   -4.6030    0.7350 N.am    1     ****   -0.4490 
      8 C7          1.3850   -4.0450   -0.3780 C.2     1     ****    0.6680 
      9 O1          1.5630   -4.3880   -1.5450 O.2     1     ****   -0.5360 
     10 C8          0.4130   -2.9240   -0.0020 C.3     1     ****    0.1570 
     11 CL1        -0.8440   -3.5920    1.0680 Cl      1     ****   -0.1070 
     12 CL2         1.3200   -1.6340    0.8240 Cl      1     ****   -0.1070 
     13 CL3        -0.3550   -2.2580   -1.4640 Cl      1     ****   -0.0510 
     14 O2          5.7720   -8.7100    1.0930 O.3     1     ****   -0.4940 
     15 H1          1.7670   -4.2160    1.6430 H       1     ****    0.3310 
     16 H2          6.0000   -8.8460    2.0290 H       1     ****    0.4190 
     17 H3          3.1020   -5.5310    2.9250 H       1     ****    0.1340 
     18 H4          4.7540   -7.3300    3.1370 H       1     ****    0.1370 
     19 H5          4.7440   -7.8520   -1.1360 H       1     ****    0.1580 
     20 H6          3.1050   -6.0700   -1.3730 H       1     ****    0.1760 
@<TRIPOS>BOND
     1  2 1 ar
     2  3 2 ar
     3  4 3 ar
     4  5 4 ar
     5  6 1 ar
     6  6 5 ar
     7  7 6 1
     8  8 7 1
     9  9 8 2
    10 10 8 1
    11 11 10 1
    12 12 10 1
    13 13 10 1
    14 14 3 1
    15 15 7 1
    16 16 14 1
    17 17 1 1
    18 18 2 1
    19 19 4 1
    20 20 5 1
@<TRIPOS>SUBSTRUCTURE
1     ****    1
@<TRIPOS>MOLECULE
ZINC00002230
38 40 1 0 0 
SMALL
USER_CHARGES


@<TRIPOS>ATOM
      1 C1          6.0400   -7.1400   -0.1580 C.3     1     ****    0.0870 
      2 C2          4.0090   -7.8280    1.2470 C.3     1     ****    0.1460 
      3 C3          2.6300   -8.4310    0.9210 C.3     1     ****   -0.1090 
      4 C4          2.3490   -7.9800   -0.5250 C.3     1     ****   -0.1080 
      5 C5          3.5900   -7.1530   -0.9120 C.3     1     ****    0.1430 
      6 C6          3.3970   -5.6700   -0.5460 C.3     1     ****   -0.1090 
      7 C7          3.0680   -5.4660    0.9420 C.3     1     ****    0.1490 
      8 C8          3.8620   -6.4200    1.8520 C.3     1     ****   -0.1350 
      9 O1          3.3610   -4.0950    1.2780 O.3     1     ****   -0.4500 
     10 C9          2.7380   -3.5720    2.3630 C.2     1     ****    0.6630 
     11 O2          1.9440   -4.1480    3.0900 O.2     1     ****   -0.5390 
     12 C10         3.1560   -2.1620    2.5680 C.ar    1     ****   -0.1540 
     13 C11         4.0610   -1.5160    1.7160 C.ar    1     ****   -0.0700 
     14 C12         4.4210   -0.1870    1.9560 C.ar    1     ****   -0.1430 
     15 C13         3.8830    0.5010    3.0420 C.ar    1     ****   -0.0760 
     16 C14         2.9830   -0.1380    3.8920 C.ar    1     ****   -0.1380 
     17 C15         2.6190   -1.4650    3.6590 C.ar    1     ****   -0.0620 
     18 H1          6.3720   -7.2060   -1.1970 H       1     ****    0.0990 
     19 H2          6.0230   -6.1000    0.1710 H       1     ****    0.1150 
     20 H3          6.6980   -7.7320    0.4830 H       1     ****    0.1000 
     21 H4          4.5620   -8.4760    1.9440 H       1     ****    0.1140 
     22 H5          2.6780   -9.5260    0.9560 H       1     ****    0.0830 
     23 H6          1.8460   -8.1130    1.6160 H       1     ****    0.1090 
     24 H7          2.2670   -8.8630   -1.1700 H       1     ****    0.0840 
     25 H8          1.4140   -7.4190   -0.6120 H       1     ****    0.1040 
     26 H9          3.7980   -7.2460   -1.9890 H       1     ****    0.1130 
     27 H10         4.2850   -5.0900   -0.8220 H       1     ****    0.0860 
     28 H11         2.5840   -5.2410   -1.1470 H       1     ****    0.1040 
     29 H12         1.9920   -5.6410    1.0770 H       1     ****    0.0920 
     30 H13         3.3560   -6.4910    2.8230 H       1     ****    0.1200 
     31 H14         4.8470   -5.9940    2.0780 H       1     ****    0.0820 
     32 H15         4.4990   -2.0210    0.8600 H       1     ****    0.1420 
     33 H16         5.1230    0.3110    1.2930 H       1     ****    0.1480 
     34 H17         4.1650    1.5340    3.2250 H       1     ****    0.1510 
     35 H18         2.5630    0.3990    4.7390 H       1     ****    0.1540 
     36 H19         1.9140   -1.9410    4.3370 H       1     ****    0.1610 
     37 N1          4.6750   -7.7390   -0.0810 N.4     1     ****   -0.7000 
     38 H20         4.8020   -8.7080   -0.4080 H       1     ****    0.4460 
@<TRIPOS>BOND
     1  3 2 1
     2  4 3 1
     3  5 4 1
     4  6 5 1
     5  7 6 1
     6  8 2 1
     7  8 7 1
     8  9 7 1
     9 10 9 1
    10 11 10 2
    11 12 10 1
    12 13 12 ar
    13 14 13 ar
    14 15 14 ar
    15 16 15 ar
    16 17 12 ar
    17 17 16 ar
    18 18 1 1
    19 19 1 1
    20 20 1 1
    21 21 2 1
    22 22 3 1
    23 23 3 1
    24 24 4 1
    25 25 4 1
    26 26 5 1
    27 27 6 1
    28 28 6 1
    29 29 7 1
    30 30 8 1
    31 31 8 1
    32 32 13 1
    33 33 14 1
    34 34 15 1
    35 35 16 1
    36 36 17 1
    37 37 1 1
    38 37 2 1
    39 37 5 1
    40 38 37 1
@<TRIPOS>SUBSTRUCTURE
1     ****    1
@<TRIPOS>MOLECULE
ZINC00002233
22 22 1 0 0 
SMALL
USER_CHARGES


@<TRIPOS>ATOM
      1 C1          4.7370   -8.3440   -0.4880 C.ar    1     ****   -0.0680 
      2 C2          3.5980   -7.7140    0.0170 C.ar    1     ****   -0.2100 
      3 C3          2.3720   -7.9020   -0.6150 C.ar    1     ****    0.1660 
      4 C4          2.2690   -8.7130   -1.7420 C.ar    1     ****   -0.1490 
      5 C5          3.4080   -9.3420   -2.2450 C.ar    1     ****   -0.0780 
      6 C6          4.6530   -9.1600   -1.6260 C.ar    1     ****   -0.1820 
      7 C7          5.8790   -9.8560   -2.1580 C.3     1     ****   -0.0370 
      8 C8          6.0530  -11.2300   -1.5230 C.3     1     ****    0.0950 
      9 O1          1.2380   -7.3010   -0.1480 O.3     1     ****   -0.4750 
     10 H1          7.4110  -12.8070   -1.6650 H       1     ****    0.4620 
     11 H2          7.2030  -11.9980   -3.0960 H       1     ****    0.4590 
     12 H3          1.4670   -6.7710    0.6340 H       1     ****    0.4360 
     13 H4          5.6900   -8.1950    0.0130 H       1     ****    0.1330 
     14 H5          3.6820   -7.0840    0.8980 H       1     ****    0.1540 
     15 H6          1.3100   -8.8580   -2.2300 H       1     ****    0.1710 
     16 H7          3.3180   -9.9760   -3.1240 H       1     ****    0.1340 
     17 H8          5.8030   -9.9450   -3.2490 H       1     ****    0.0700 
     18 H9          6.7630   -9.2330   -1.9700 H       1     ****    0.0690 
     19 H10         6.1910  -11.1700   -0.4390 H       1     ****    0.1160 
     20 H11         5.2130  -11.8960   -1.7430 H       1     ****    0.1170 
     21 N1          7.2680  -11.8750   -2.0770 N.4     1     ****   -0.8400 
     22 H12         8.1140  -11.3220   -1.8830 H       1     ****    0.4580 
@<TRIPOS>BOND
     1  2 1 ar
     2  3 2 ar
     3  4 3 ar
     4  5 4 ar
     5  6 1 ar
     6  6 5 ar
     7  7 6 1
     8  8 7 1
     9  9 3 1
    10 12 9 1
    11 13 1 1
    12 14 2 1
    13 15 4 1
    14 16 5 1
    15 17 7 1
    16 18 7 1
    17 19 8 1
    18 20 8 1
    19 21 8 1
    20 21 10 1
    21 21 11 1
    22 22 21 1
@<TRIPOS>SUBSTRUCTURE
1     ****    1
@<TRIPOS>MOLECULE
ZINC00002244
38 40 1 0 0 
SMALL
USER_CHARGES


@<TRIPOS>ATOM
      1 C1          6.0190   -5.8590   -1.7840 C.3     1     ****    0.0760 
      2 N1          5.4470   -5.6680   -0.4580 N.am    1     ****   -0.4030 
      3 C2          6.2780   -5.4410    0.6270 C.2     1     ****    0.5400 
      4 C3          5.7920   -5.2530    1.8950 C.2     1     ****   -0.3890 
      5 C4          4.3970   -5.2660    2.2150 C.2     1     ****    0.7670 
      6 O1          3.9620   -5.0720    3.3460 O.2     1     ****   -0.6730 
      7 N2          3.5920   -5.5130    1.0760 N.am    1     ****   -0.4660 
      8 C5          4.0490   -5.7130   -0.2680 C.2     1     ****    0.8080 
      9 O2          3.2610   -5.9100   -1.1990 O.2     1     ****   -0.5750 
     10 C6          2.1470   -5.5610    1.2660 C.3     1     ****    0.0720 
     11 N3          6.9070   -5.0610    2.6660 N.pl3   1     ****   -0.2400 
     12 C7          7.9950   -5.1520    1.8340 C.2     1     ****    0.4860 
     13 N4          7.6420   -5.3750    0.5870 N.2     1     ****   -0.6320 
     14 C8          6.9850   -4.8510    4.0970 C.3     1     ****    0.2600 
     15 C9          7.6140   -3.2740    5.9300 C.3     1     ****    0.0700 
     16 C10         7.8960   -1.8100    6.2340 C.3     1     ****    0.1020 
     17 O3          6.7490   -1.0090    5.9470 O.3     1     ****   -0.3700 
     18 C11         6.4060   -1.0750    4.5630 C.3     1     ****    0.0980 
     19 C12         6.0450   -2.4990    4.1650 C.3     1     ****    0.0630 
     20 H1          5.2450   -6.0260   -2.5370 H       1     ****    0.1030 
     21 H2          6.5900   -4.9660   -2.0580 H       1     ****    0.0630 
     22 H3          6.6840   -6.7280   -1.7630 H       1     ****    0.0720 
     23 H4          1.8580   -5.4400    2.3130 H       1     ****    0.0860 
     24 H5          1.6890   -4.7630    0.6720 H       1     ****    0.0740 
     25 H6          1.7720   -6.5220    0.8980 H       1     ****    0.0710 
     26 H7          9.0110   -5.0490    2.1910 H       1     ****    0.0850 
     27 H8          7.8370   -5.4330    4.4670 H       1     ****    0.1120 
     28 H9          6.0740   -5.1960    4.5920 H       1     ****    0.1600 
     29 H10         6.7730   -3.6540    6.5200 H       1     ****    0.1200 
     30 H11         8.5040   -3.8900    6.0940 H       1     ****    0.1020 
     31 H12         8.1260   -1.6910    7.2970 H       1     ****    0.1290 
     32 H13         8.7560   -1.4380    5.6650 H       1     ****    0.0630 
     33 H14         5.5450   -0.4180    4.4030 H       1     ****    0.1310 
     34 H15         7.2350   -0.6860    3.9600 H       1     ****    0.0610 
     35 H16         5.8360   -2.5590    3.0940 H       1     ****    0.1140 
     36 H17         5.1950   -2.8750    4.7450 H       1     ****    0.1450 
     37 N5          7.2240   -3.4030    4.4700 N.4     1     ****   -0.7210 
     38 H18         8.0230   -3.0720    3.9120 H       1     ****    0.4350 
@<TRIPOS>BOND
     1  2 1 1
     2  3 2 1
     3  4 3 ar
     4  5 4 1
     5  6 5 2
     6  7 5 1
     7  8 2 1
     8  8 7 1
     9  9 8 2
    10 10 7 1
    11 11 4 1
    12 12 11 1
    13 13 3 1
    14 13 12 2
    15 14 11 1
    16 16 15 1
    17 17 16 1
    18 18 17 1
    19 19 18 1
    20 20 1 1
    21 21 1 1
    22 22 1 1
    23 23 10 1
    24 24 10 1
    25 25 10 1
    26 26 12 1
    27 27 14 1
    28 28 14 1
    29 29 15 1
    30 30 15 1
    31 31 16 1
    32 32 16 1
    33 33 18 1
    34 34 18 1
    35 35 19 1
    36 36 19 1
    37 37 14 1
    38 37 15 1
    39 37 19 1
    40 38 37 1
@<TRIPOS>SUBSTRUCTURE
1     ****    1
@<TRIPOS>MOLECULE
ZINC00002434
28 29 1 0 0 
SMALL
USER_CHARGES


@<TRIPOS>ATOM
      1 C1          5.8940   -6.8600   -1.7480 C.3     1     ****   -0.1540 
      2 C2          4.5220   -6.7800   -1.1520 C.ar    1     ****    0.4390 
      3 C3          3.6290   -7.8270   -1.3210 C.ar    1     ****   -0.2720 
      4 C4          2.3680   -7.7110   -0.7520 C.ar    1     ****   -0.0630 
      5 C5          2.0280   -6.5590   -0.0310 C.ar    1     ****   -0.1980 
      6 C6          0.7690   -6.4020    0.5580 C.ar    1     ****   -0.0740 
      7 C7          0.4600   -5.2400    1.2700 C.ar    1     ****   -0.1820 
      8 C8          1.3880   -4.1970    1.4230 C.ar    1     ****    0.2080 
      9 C9          2.6460   -4.3970    0.8130 C.ar    1     ****   -0.2720 
     10 C10         2.9880   -5.5450    0.0930 C.ar    1     ****    0.4490 
     11 N1          4.2130   -5.6560   -0.4580 N.ar    1     ****   -0.6760 
     12 N2          1.0850   -3.0360    2.1330 N.pl3   1     ****   -0.7060 
     13 C11         2.0640   -1.9660    2.2780 C.3     1     ****    0.2150 
     14 C12        -0.2220   -2.8550    2.7530 C.3     1     ****    0.2180 
     15 H1          6.4350   -7.7190   -1.3380 H       1     ****    0.0490 
     16 H2          5.8290   -6.9610   -2.8350 H       1     ****    0.0490 
     17 H3          6.4700   -5.9570   -1.5240 H       1     ****    0.0630 
     18 H4          3.9000   -8.7160   -1.8800 H       1     ****    0.1390 
     19 H5          1.6550   -8.5220   -0.8740 H       1     ****    0.1330 
     20 H6          0.0140   -7.1810    0.4690 H       1     ****    0.1310 
     21 H7         -0.5350   -5.1780    1.7040 H       1     ****    0.1340 
     22 H8          3.4140   -3.6280    0.8910 H       1     ****    0.1510 
     23 H9          1.6700   -1.1270    2.8620 H       1     ****    0.0430 
     24 H10         2.9580   -2.3230    2.8010 H       1     ****    0.0340 
     25 H11         2.3510   -1.5640    1.3000 H       1     ****    0.0370 
     26 H12        -0.2990   -1.8930    3.2710 H       1     ****    0.0450 
     27 H13        -1.0170   -2.8730    2.0000 H       1     ****    0.0320 
     28 H14        -0.4100   -3.6330    3.5010 H       1     ****    0.0290 
@<TRIPOS>BOND
     1  2 1 1
     2  3 2 ar
     3  4 3 ar
     4  5 4 ar
     5  6 5 ar
     6  7 6 ar
     7  8 7 ar
     8  9 8 ar
     9 10 5 ar
    10 10 9 ar
    11 11 2 ar
    12 11 10 ar
    13 12 8 1
    14 13 12 1
    15 14 12 1
    16 15 1 1
    17 16 1 1
    18 17 1 1
    19 18 3 1
    20 19 4 1
    21 20 6 1
    22 21 7 1
    23 22 9 1
    24 23 13 1
    25 24 13 1
    26 25 13 1
    27 26 14 1
    28 27 14 1
    29 28 14 1
@<TRIPOS>SUBSTRUCTURE
1     ****    1
@<TRIPOS>MOLECULE
ZINC00002435
27 28 1 0 0 
SMALL
USER_CHARGES


@<TRIPOS>ATOM
      1 C1          5.7470   -6.8100   -0.5000 C.3     1     ****   -0.0640 
      2 C2          4.2710   -7.0460   -0.3250 C.ar    1     ****   -0.0140 
      3 C3          3.8140   -8.3560   -0.1700 C.ar    1     ****   -0.2660 
      4 C4          2.4600   -8.5600   -0.0100 C.ar    1     ****    0.4220 
      5 N1          1.5440   -7.5700    0.0050 N.ar    1     ****   -0.6700 
      6 C5          1.9720   -6.3050   -0.1440 C.ar    1     ****    0.4240 
      7 C6          3.3350   -5.9810   -0.3140 C.ar    1     ****   -0.1680 
      8 C7          3.6930   -4.6240   -0.4620 C.ar    1     ****   -0.0920 
      9 C8          2.7330   -3.6080   -0.4440 C.ar    1     ****   -0.1470 
     10 C9          1.3910   -3.9270   -0.2770 C.ar    1     ****    0.0870 
     11 C10         1.0340   -5.2750   -0.1290 C.ar    1     ****   -0.2430 
     12 N2          0.3440   -2.9760   -0.2440 N.am    1     ****   -0.4760 
     13 C11         0.4520   -1.5980   -0.3680 C.2     1     ****    0.6680 
     14 O1          1.4700   -0.9330   -0.5300 O.2     1     ****   -0.5880 
     15 C12        -0.9000   -0.9340   -0.2800 C.3     1     ****   -0.1790 
     16 H1         -0.5900   -3.3580   -0.1150 H       1     ****    0.3170 
     17 H2          6.3100   -7.7490   -0.4830 H       1     ****    0.0470 
     18 H3          5.9440   -6.3280   -1.4630 H       1     ****    0.0540 
     19 H4          6.1310   -6.1830    0.3110 H       1     ****    0.0540 
     20 H5          4.4960   -9.2000   -0.1730 H       1     ****    0.1430 
     21 H6          2.0590   -9.5610    0.1140 H       1     ****    0.0200 
     22 H7          4.7330   -4.3340   -0.5960 H       1     ****    0.1380 
     23 H8          3.0800   -2.5880   -0.5640 H       1     ****    0.1770 
     24 H9         -0.0160   -5.5380    0.0030 H       1     ****    0.1470 
     25 H10        -0.7870    0.1500   -0.3810 H       1     ****    0.0830 
     26 H11        -1.5460   -1.2980   -1.0840 H       1     ****    0.0640 
     27 H12        -1.3590   -1.1530    0.6880 H       1     ****    0.0640 
@<TRIPOS>BOND
     1  2 1 1
     2  3 2 ar
     3  4 3 ar
     4  5 4 ar
     5  6 5 ar
     6  7 2 ar
     7  7 6 ar
     8  8 7 ar
     9  9 8 ar
    10 10 9 ar
    11 11 6 ar
    12 11 10 ar
    13 12 10 1
    14 13 12 1
    15 14 13 2
    16 15 13 1
    17 16 12 1
    18 17 1 1
    19 18 1 1
    20 19 1 1
    21 20 3 1
    22 21 4 1
    23 22 8 1
    24 23 9 1
    25 24 11 1
    26 25 15 1
    27 26 15 1
    28 27 15 1
@<TRIPOS>SUBSTRUCTURE
1     ****    1
@<TRIPOS>MOLECULE
ZINC00002555
33 35 1 0 0 
SMALL
USER_CHARGES


@<TRIPOS>ATOM
      1 C1          1.3860    2.4550    1.1980 C.2     1     ****    0.3920 
      2 N1          1.5840    2.3210    2.4950 N.2     1     ****   -0.5850 
      3 C2          1.9110    3.5780    2.9110 C.2     1     ****    0.1750 
      4 C3          1.9130    4.4830    1.8750 C.2     1     ****    0.1130 
      5 N2          1.5690    3.7500    0.7720 N.pl3   1     ****   -0.1940 
      6 C4          1.4370    4.2570   -0.5880 C.3     1     ****    0.0530 
      7 C5          0.0900    3.8480   -1.2280 C.3     1     ****   -0.0950 
      8 C6          0.4500    2.8530   -2.3260 C.3     1     ****   -0.0790 
      9 C7          1.8250    3.3390   -2.7830 C.3     1     ****   -0.1070 
     10 C8          2.5420    3.6850   -1.4860 C.3     1     ****   -0.0900 
     11 C9          2.5730    2.2550   -3.5570 C.3     1     ****    0.1330 
     12 O1          3.8430    2.7360   -3.9760 O.3     1     ****   -0.5940 
     13 N3          2.1940    5.8070    1.9170 N.2     1     ****   -0.6740 
     14 C10         2.4940    6.2390    3.1190 C.2     1     ****    0.6800 
     15 N4          2.5200    5.3990    4.2480 N.am    1     ****   -0.5100 
     16 C11         2.2360    4.0290    4.2370 C.2     1     ****    0.6510 
     17 O2          2.2610    3.3040    5.2240 O.2     1     ****   -0.5990 
     18 N5          2.8050    7.5500    3.3530 N.pl3   1     ****   -0.8930 
     19 H1          3.6910    3.5160   -4.5360 H       1     ****    0.3970 
     20 H2          2.7620    5.8110    5.1420 H       1     ****    0.3350 
     21 H3          2.8100    8.2200    2.5930 H       1     ****    0.4290 
     22 H4          3.0380    7.8910    4.2780 H       1     ****    0.4090 
     23 H5          1.1130    1.6550    0.5240 H       1     ****    0.0660 
     24 H6          1.4530    5.3580   -0.5540 H       1     ****    0.0880 
     25 H7         -0.6420    3.4380   -0.5250 H       1     ****    0.0640 
     26 H8         -0.3670    4.7330   -1.6900 H       1     ****    0.0550 
     27 H9          0.5040    1.8380   -1.9140 H       1     ****    0.0470 
     28 H10        -0.2840    2.8520   -3.1380 H       1     ****    0.0520 
     29 H11         1.6790    4.2190   -3.4320 H       1     ****    0.0510 
     30 H12         3.3330    4.4240   -1.6540 H       1     ****    0.0620 
     31 H13         3.0190    2.8010   -1.0470 H       1     ****    0.0700 
     32 H14         2.7340    1.3600   -2.9470 H       1     ****    0.0710 
     33 H15         2.0100    1.9540   -4.4470 H       1     ****    0.0270 
@<TRIPOS>BOND
     1  2 1 2
     2  3 2 1
     3  4 3 ar
     4  5 1 1
     5  5 4 1
     6  6 5 1
     7  7 6 1
     8  8 7 1
     9  9 8 1
    10 10 6 1
    11 10 9 1
    12 11 9 1
    13 12 11 1
    14 13 4 1
    15 14 13 2
    16 15 14 1
    17 16 3 1
    18 16 15 1
    19 17 16 2
    20 18 14 1
    21 19 12 1
    22 20 15 1
    23 21 18 1
    24 22 18 1
    25 23 1 1
    26 24 6 1
    27 25 7 1
    28 26 7 1
    29 27 8 1
    30 28 8 1
    31 29 9 1
    32 30 10 1
    33 31 10 1
    34 32 11 1
    35 33 11 1
@<TRIPOS>SUBSTRUCTURE
1     ****    1
@<TRIPOS>MOLECULE
ZINC00002650
49 52 1 0 0 
SMALL
USER_CHARGES


@<TRIPOS>ATOM
      1 C1         -3.0100    1.4140   -0.8960 C.ar    1     ****   -0.0710 
      2 C2         -3.1290    2.2140    0.2480 C.ar    1     ****   -0.1640 
      3 C3         -2.5960    1.8270    1.4950 C.ar    1     ****   -0.0680 
      4 C4         -1.9780    0.5610    1.5380 C.ar    1     ****   -0.2190 
      5 C5         -1.8560   -0.2320    0.3920 C.ar    1     ****    0.1400 
      6 C6         -2.3640    0.1880   -0.8290 C.ar    1     ****   -0.1970 
      7 O1         -1.2210   -1.4370    0.5130 O.3     1     ****   -0.4990 
      8 C7         -2.7540    2.7510    2.7570 C.3     1     ****    0.0030 
      9 C8         -4.2850    2.8940    3.0310 C.3     1     ****   -0.0730 
     10 C9         -4.7370    4.3510    3.1670 C.3     1     ****   -0.0840 
     11 C10        -4.2920    5.2060    1.9820 C.3     1     ****   -0.0790 
     12 C11        -2.7870    5.1390    1.6960 C.3     1     ****   -0.0740 
     13 C12        -2.0540    4.1300    2.5920 C.3     1     ****   -0.0690 
     14 C13        -0.6000    3.9620    2.1420 C.3     1     ****    0.1150 
     15 C14        -0.5650    2.4550    4.1510 C.3     1     ****    0.1150 
     16 C15        -2.0680    2.1430    4.0230 C.3     1     ****   -0.1050 
     17 C16         1.5640    3.0120    2.8970 C.3     1     ****    0.1490 
     18 C17         2.3700    1.8060    3.2680 C.3     1     ****   -0.2060 
     19 C18         2.5360    0.6750    2.2870 C.3     1     ****   -0.1200 
     20 C19         3.7060    1.5570    2.6210 C.3     1     ****   -0.0860 
     21 H1         -1.2260   -1.8790   -0.3540 H       1     ****    0.4390 
     22 H2         -3.4340    1.7540   -1.8370 H       1     ****    0.1550 
     23 H3         -3.6780    3.1410    0.1380 H       1     ****    0.1510 
     24 H4         -1.5590    0.1560    2.4530 H       1     ****    0.1420 
     25 H5         -2.2750   -0.4260   -1.7190 H       1     ****    0.1560 
     26 H6         -4.8880    2.4320    2.2400 H       1     ****    0.0710 
     27 H7         -4.5690    2.3530    3.9430 H       1     ****    0.0590 
     28 H8         -5.8290    4.3860    3.2500 H       1     ****    0.0690 
     29 H9         -4.3440    4.7750    4.1000 H       1     ****    0.0420 
     30 H10        -4.8430    4.8920    1.0870 H       1     ****    0.0550 
     31 H11        -4.5830    6.2480    2.1580 H       1     ****    0.0630 
     32 H12        -2.6120    4.9480    0.6320 H       1     ****    0.0540 
     33 H13        -2.3550    6.1340    1.8710 H       1     ****    0.0530 
     34 H14        -2.0800    4.6260    3.5830 H       1     ****    0.0710 
     35 H15        -0.0330    4.8620    2.4080 H       1     ****    0.0940 
     36 H16        -0.5040    3.7970    1.0630 H       1     ****    0.1010 
     37 H17        -0.0450    1.5900    4.5740 H       1     ****    0.0990 
     38 H18        -0.3920    3.3200    4.8020 H       1     ****    0.0920 
     39 H19        -2.5320    2.5780    4.9210 H       1     ****    0.0860 
     40 H20        -2.2600    1.0710    4.1330 H       1     ****    0.0880 
     41 H21         1.7240    3.8150    3.6260 H       1     ****    0.1020 
     42 H22         1.8690    3.3790    1.9100 H       1     ****    0.0960 
     43 H23         2.2800    1.5540    4.3180 H       1     ****    0.1050 
     44 H24         2.5370   -0.3350    2.6780 H       1     ****    0.1040 
     45 H25         2.1010    0.7710    1.3000 H       1     ****    0.0770 
     46 H26         4.0540    2.2420    1.8580 H       1     ****    0.0870 
     47 H27         4.4940    1.1380    3.2360 H       1     ****    0.1050 
     48 N1          0.0690    2.7710    2.8110 N.4     1     ****   -0.6870 
     49 H28        -0.0680    1.9150    2.2510 H       1     ****    0.4630 
@<TRIPOS>BOND
     1  2 1 ar
     2  3 2 ar
     3  4 3 ar
     4  5 4 ar
     5  6 1 ar
     6  6 5 ar
     7  7 5 1
     8  8 3 1
     9  9 8 1
    10 10 9 1
    11 11 10 1
    12 12 11 1
    13 13 8 1
    14 13 12 1
    15 14 13 1
    16 16 8 1
    17 16 15 1
    18 18 17 1
    19 19 18 1
    20 20 18 1
    21 20 19 1
    22 21 7 1
    23 22 1 1
    24 23 2 1
    25 24 4 1
    26 25 6 1
    27 26 9 1
    28 27 9 1
    29 28 10 1
    30 29 10 1
    31 30 11 1
    32 31 11 1
    33 32 12 1
    34 33 12 1
    35 34 13 1
    36 35 14 1
    37 36 14 1
    38 37 15 1
    39 38 15 1
    40 39 16 1
    41 40 16 1
    42 41 17 1
    43 42 17 1
    44 43 18 1
    45 44 19 1
    46 45 19 1
    47 46 20 1
    48 47 20 1
    49 48 14 1
    50 48 15 1
    51 48 17 1
    52 49 48 1
@<TRIPOS>SUBSTRUCTURE
1     ****    1
@<TRIPOS>MOLECULE
ZINC00003686
32 34 1 0 0 
SMALL
USER_CHARGES


@<TRIPOS>ATOM
      1 C1         -2.5520    2.7500   -5.6190 C.ar    1     ****    0.6870 
      2 N1         -3.9050    2.7300   -5.5980 N.ar    1     ****   -0.7980 
      3 C2         -4.5380    2.6640   -4.3940 C.ar    1     ****    0.7630 
      4 C3         -3.7340    2.6200   -3.2440 C.ar    1     ****   -0.2360 
      5 C4         -2.3580    2.6460   -3.4170 C.ar    1     ****    0.4610 
      6 N2         -1.6940    2.7120   -4.5820 N.ar    1     ****   -0.7370 
      7 N3         -1.8360    2.5920   -2.1510 N.pl3   1     ****   -0.2560 
      8 C5         -2.8950    2.5420   -1.2820 C.2     1     ****    0.4000 
      9 N4         -4.0530    2.5540   -1.9080 N.2     1     ****   -0.5460 
     10 C6         -0.4180    2.5980   -1.8160 C.3     1     ****    0.0530 
     11 C7         -0.0470    1.4390   -0.8610 C.3     1     ****   -0.0950 
     12 C8          0.2980    2.1050    0.4670 C.3     1     ****   -0.0810 
     13 C9          0.8820    3.4470    0.0290 C.3     1     ****   -0.0710 
     14 C10        -0.0390    3.8990   -1.0960 C.3     1     ****   -0.0890 
     15 C11         0.8920    4.4550    1.1750 C.3     1     ****    0.1380 
     16 O1          1.4680    5.6740    0.7260 O.3     1     ****   -0.6000 
     17 N5         -5.9180    2.6420   -4.3290 N.pl3   1     ****   -0.9620 
     18 H1          1.4660    6.2860    1.4810 H       1     ****    0.4020 
     19 H2         -6.4540    2.6760   -5.1840 H       1     ****    0.4430 
     20 H3         -6.3870    2.5940   -3.4350 H       1     ****    0.4520 
     21 H4         -2.1000    2.8040   -6.6040 H       1     ****    0.0510 
     22 H5         -2.7680    2.5010   -0.2090 H       1     ****    0.0710 
     23 H6          0.1600    2.4480   -2.7410 H       1     ****    0.0940 
     24 H7         -0.8230    0.6750   -0.7490 H       1     ****    0.0590 
     25 H8          0.8490    0.9350   -1.2470 H       1     ****    0.0580 
     26 H9         -0.6080    2.2440    1.0670 H       1     ****    0.0410 
     27 H10         1.0070    1.5120    1.0530 H       1     ****    0.0530 
     28 H11         1.9160    3.2770   -0.3180 H       1     ****    0.0720 
     29 H12         0.4710    4.5890   -1.7770 H       1     ****    0.0700 
     30 H13        -0.9170    4.4280   -0.7030 H       1     ****    0.0580 
     31 H14        -0.1190    4.6600    1.5440 H       1     ****    0.0230 
     32 H15         1.4930    4.0770    2.0090 H       1     ****    0.0240 
@<TRIPOS>BOND
     1  2 1 ar
     2  3 2 ar
     3  4 3 ar
     4  5 4 ar
     5  6 1 ar
     6  6 5 ar
     7  7 5 1
     8  8 7 1
     9  9 4 1
    10  9 8 2
    11 10 7 1
    12 11 10 1
    13 12 11 1
    14 13 12 1
    15 14 10 1
    16 14 13 1
    17 15 13 1
    18 16 15 1
    19 17 3 1
    20 18 16 1
    21 19 17 1
    22 20 17 1
    23 21 1 1
    24 22 8 1
    25 23 10 1
    26 24 11 1
    27 25 11 1
    28 26 12 1
    29 27 12 1
    30 28 13 1
    31 29 14 1
    32 30 14 1
    33 31 15 1
    34 32 15 1
@<TRIPOS>SUBSTRUCTURE
1     ****    1
@<TRIPOS>MOLECULE
ZINC00003712
29 30 1 0 0 
SMALL
USER_CHARGES


@<TRIPOS>ATOM
      1 C1          7.2720   -3.0740    1.8090 C.3     1     ****   -0.0750 
      2 C2          5.9590   -3.7830    1.9800 C.2     1     ****    0.1560 
      3 C3          5.3200   -3.7770    3.1630 C.2     1     ****   -0.3190 
      4 C4          4.0220   -4.4920    3.2890 C.2     1     ****    0.5930 
      5 C5          3.5000   -5.1790    2.0820 C.ar    1     ****   -0.2560 
      6 C6          2.2930   -5.8670    2.1220 C.ar    1     ****   -0.0050 
      7 C7          1.8240   -6.5070    0.9690 C.ar    1     ****   -0.2450 
      8 C8          2.5330   -6.4830   -0.2500 C.ar    1     ****    0.2550 
      9 C9          3.7530   -5.7730   -0.2460 C.ar    1     ****   -0.2910 
     10 C10         4.2430   -5.1230    0.8990 C.ar    1     ****    0.2340 
     11 N1          5.4580   -4.4270    0.8700 N.pl3   1     ****   -0.6240 
     12 N2          2.0550   -7.1240   -1.3930 N.pl3   1     ****   -0.7000 
     13 C11         2.8030   -7.0870   -2.6440 C.3     1     ****    0.2140 
     14 C12         0.7920   -7.8520   -1.3740 C.3     1     ****    0.2140 
     15 O1          3.4150   -4.5060    4.3530 O.2     1     ****   -0.5840 
     16 H1          5.9900   -4.3910    0.0100 H       1     ****    0.4450 
     17 H2          7.6030   -2.5880    2.7320 H       1     ****    0.0680 
     18 H3          8.0500   -3.7840    1.5070 H       1     ****    0.0540 
     19 H4          7.1890   -2.3020    1.0360 H       1     ****    0.0540 
     20 H5          5.7060   -3.2740    4.0410 H       1     ****    0.1580 
     21 H6          1.7050   -5.9190    3.0340 H       1     ****    0.1580 
     22 H7          0.8750   -7.0320    1.0540 H       1     ****    0.1380 
     23 H8          4.3540   -5.7110   -1.1500 H       1     ****    0.1320 
     24 H9          2.2930   -7.6380   -3.4420 H       1     ****    0.0470 
     25 H10         2.9230   -6.0570   -2.9970 H       1     ****    0.0340 
     26 H11         3.7900   -7.5480   -2.5220 H       1     ****    0.0310 
     27 H12         0.5620   -8.2960   -2.3490 H       1     ****    0.0450 
     28 H13         0.8270   -8.6750   -0.6520 H       1     ****    0.0350 
     29 H14        -0.0390   -7.1830   -1.1260 H       1     ****    0.0380 
@<TRIPOS>BOND
     1  2 1 1
     2  3 2 2
     3  4 3 1
     4  5 4 1
     5  6 5 ar
     6  7 6 ar
     7  8 7 ar
     8  9 8 ar
     9 10 5 ar
    10 10 9 ar
    11 11 2 1
    12 11 10 1
    13 12 8 1
    14 13 12 1
    15 14 12 1
    16 15 4 2
    17 16 11 1
    18 17 1 1
    19 18 1 1
    20 19 1 1
    21 20 3 1
    22 21 6 1
    23 22 7 1
    24 23 9 1
    25 24 13 1
    26 25 13 1
    27 26 13 1
    28 27 14 1
    29 28 14 1
    30 29 14 1
@<TRIPOS>SUBSTRUCTURE
1     ****    1
@<TRIPOS>MOLECULE
ZINC00003866
47 50 1 0 0 
SMALL
USER_CHARGES


@<TRIPOS>ATOM
      1 C1         -6.5560    8.0500    2.1450 C.3     1     ****   -0.0840 
      2 C2         -6.8910    7.9860    3.6480 C.3     1     ****   -0.1530 
      3 C3         -8.1870    7.2010    3.8580 C.3     1     ****   -0.0570 
      4 C4         -8.0030    5.7020    3.5310 C.3     1     ****   -0.0730 
      5 C5         -6.7760    5.0490    4.2430 C.3     1     ****   -0.0110 
      6 C6         -6.5020    3.6230    3.7700 C.ar    1     ****   -0.0990 
      7 C7         -7.5570    2.7750    3.3800 C.ar    1     ****   -0.0670 
      8 C8         -7.3410    1.4480    2.9870 C.ar    1     ****   -0.2080 
      9 C9         -6.0580    0.9120    2.9860 C.ar    1     ****    0.1750 
     10 C10        -5.0110    1.7450    3.4040 C.ar    1     ****   -0.1910 
     11 C11        -5.1950    3.0850    3.8150 C.ar    1     ****    0.0120 
     12 C12        -4.0080    3.9250    4.2430 C.3     1     ****   -0.0580 
     13 C13        -4.3640    5.2810    4.8470 C.3     1     ****   -0.0720 
     14 C14        -5.5050    5.9140    4.0440 C.3     1     ****   -0.0490 
     15 C15        -5.8280    7.3270    4.5260 C.3     1     ****   -0.0640 
     16 C16        -4.7290    8.3840    4.6250 C.3     1     ****   -0.0730 
     17 C17        -5.5400    9.6850    4.8450 C.3     1     ****   -0.1880 
     18 C18        -6.8900    9.3850    4.1980 C.2     1     ****    0.5770 
     19 O1         -7.8150   10.1810    4.1220 O.2     1     ****   -0.5170 
     20 N1         -3.6740    1.1890    3.4050 N.2     1     ****    0.3240 
     21 O2         -2.9880    1.3800    2.3930 O.2     1     ****   -0.1990 
     22 O3         -3.3250    0.5720    4.4200 O.3     1     ****   -0.1950 
     23 O4         -5.7400   -0.3650    2.6140 O.3     1     ****   -0.3160 
     24 C19        -6.8050   -1.2050    2.1830 C.3     1     ****    0.1150 
     25 H1         -5.6330    8.6090    1.9560 H       1     ****    0.0400 
     26 H2         -6.4460    7.0690    1.6770 H       1     ****    0.0470 
     27 H3         -7.3500    8.5780    1.6040 H       1     ****    0.0490 
     28 H4         -8.5230    7.3010    4.8990 H       1     ****    0.0480 
     29 H5         -8.9950    7.6130    3.2410 H       1     ****    0.0590 
     30 H6         -8.9270    5.1930    3.8330 H       1     ****    0.0410 
     31 H7         -7.9200    5.5700    2.4450 H       1     ****    0.0490 
     32 H8         -7.0540    5.0270    5.3140 H       1     ****    0.0620 
     33 H9         -8.5850    3.1270    3.3780 H       1     ****    0.1440 
     34 H10        -8.2080    0.8640    2.6920 H       1     ****    0.1500 
     35 H11        -3.4050    3.3790    4.9770 H       1     ****    0.0720 
     36 H12        -3.3830    4.0960    3.3570 H       1     ****    0.0740 
     37 H13        -4.6640    5.1550    5.8950 H       1     ****    0.0490 
     38 H14        -3.4710    5.9150    4.8450 H       1     ****    0.0530 
     39 H15        -5.1630    5.9200    2.9970 H       1     ****    0.0660 
     40 H16        -6.1550    7.1950    5.5770 H       1     ****    0.0520 
     41 H17        -4.0390    8.2070    5.4550 H       1     ****    0.0530 
     42 H18        -4.1410    8.4430    3.7020 H       1     ****    0.0510 
     43 H19        -5.6950    9.8710    5.9110 H       1     ****    0.0760 
     44 H20        -5.0580   10.5410    4.3660 H       1     ****    0.0770 
     45 H21        -6.3770   -2.1760    1.9180 H       1     ****    0.0800 
     46 H22        -7.5280   -1.3680    2.9890 H       1     ****    0.0400 
     47 H23        -7.2900   -0.8000    1.2890 H       1     ****    0.0390 
@<TRIPOS>BOND
     1  2 1 1
     2  3 2 1
     3  4 3 1
     4  5 4 1
     5  6 5 1
     6  7 6 ar
     7  8 7 ar
     8  9 8 ar
     9 10 9 ar
    10 11 6 ar
    11 11 10 ar
    12 12 11 1
    13 13 12 1
    14 14 5 1
    15 14 13 1
    16 15 2 1
    17 15 14 1
    18 16 15 1
    19 17 16 1
    20 18 2 1
    21 18 17 1
    22 19 18 2
    23 20 10 1
    24 21 20 2
    25 22 20 1
    26 23 9 1
    27 24 23 1
    28 25 1 1
    29 26 1 1
    30 27 1 1
    31 28 3 1
    32 29 3 1
    33 30 4 1
    34 31 4 1
    35 32 5 1
    36 33 7 1
    37 34 8 1
    38 35 12 1
    39 36 12 1
    40 37 13 1
    41 38 13 1
    42 39 14 1
    43 40 15 1
    44 41 16 1
    45 42 16 1
    46 43 17 1
    47 44 17 1
    48 45 24 1
    49 46 24 1
    50 47 24 1
@<TRIPOS>SUBSTRUCTURE
1     ****    1
@<TRIPOS>MOLECULE
ZINC00004042
22 22 1 0 0 
SMALL
USER_CHARGES


@<TRIPOS>ATOM
      1 C1          6.4680   -7.3330   -1.7540 C.3     1     ****   -0.1440 
      2 C2          5.2990   -8.2340   -1.5030 C.ar    1     ****    0.2970 
      3 C3          4.0780   -8.0650   -2.1430 C.ar    1     ****    0.2970 
      4 N1          3.0400   -8.8960   -1.8960 N.ar    1     ****   -0.6350 
      5 C4          3.2280   -9.8980   -1.0060 C.ar    1     ****    0.2970 
      6 C5          4.4490  -10.0670   -0.3660 C.ar    1     ****    0.2970 
      7 N2          5.4870   -9.2360   -0.6130 N.ar    1     ****   -0.6350 
      8 C6          4.6900  -11.1640    0.6240 C.3     1     ****   -0.1440 
      9 C7          2.0590  -10.8000   -0.7560 C.3     1     ****   -0.1440 
     10 C8          3.8370   -6.9680   -3.1330 C.3     1     ****   -0.1440 
     11 H1          6.2200   -6.3010   -1.4850 H       1     ****    0.0500 
     12 H2          7.3300   -7.6380   -1.1510 H       1     ****    0.0650 
     13 H3          6.7640   -7.3730   -2.8060 H       1     ****    0.0500 
     14 H4          4.0070  -11.0700    1.4740 H       1     ****    0.0500 
     15 H5          4.5510  -12.1420    0.1520 H       1     ****    0.0490 
     16 H6          5.7140  -11.1210    1.0100 H       1     ****    0.0650 
     17 H7          1.1970  -10.4950   -1.3580 H       1     ****    0.0650 
     18 H8          2.3070  -11.8310   -1.0240 H       1     ****    0.0500 
     19 H9          1.7630  -10.7590    0.2970 H       1     ****    0.0500 
     20 H10         4.5200   -7.0620   -3.9830 H       1     ****    0.0500 
     21 H11         2.8130   -7.0110   -3.5190 H       1     ****    0.0650 
     22 H12         3.9760   -5.9900   -2.6620 H       1     ****    0.0490 
@<TRIPOS>BOND
     1  2 1 1
     2  3 2 ar
     3  4 3 ar
     4  5 4 ar
     5  6 5 ar
     6  7 2 ar
     7  7 6 ar
     8  8 6 1
     9  9 5 1
    10 10 3 1
    11 11 1 1
    12 12 1 1
    13 13 1 1
    14 14 8 1
    15 15 8 1
    16 16 8 1
    17 17 9 1
    18 18 9 1
    19 19 9 1
    20 20 10 1
    21 21 10 1
    22 22 10 1
@<TRIPOS>SUBSTRUCTURE
1     ****    1
@<TRIPOS>MOLECULE
ZINC00004060
28 29 1 0 0 
SMALL
USER_CHARGES


@<TRIPOS>ATOM
      1 C1          3.5130   -6.2990   -1.6350 C.2     1     ****    0.0360 
      2 C2          4.6540   -6.9750   -1.6780 C.2     1     ****   -0.1530 
      3 C3          5.7960   -6.4680   -0.8920 C.2     1     ****    0.7510 
      4 N1          5.6850   -5.3810   -0.1760 N.2     1     ****   -0.7170 
      5 C4          4.4940   -4.6730   -0.1300 C.2     1     ****    0.8410 
      6 O1          4.4210   -3.6520    0.5520 O.2     1     ****   -0.6190 
      7 N2          3.3920   -5.1530   -0.8740 N.am    1     ****   -0.3860 
      8 C5          2.1000   -4.4440   -0.8890 C.3     1     ****    0.3070 
      9 C6          2.1650   -3.0720   -1.5720 C.3     1     ****   -0.0950 
     10 C7          1.9050   -2.0870   -0.4540 C.3     1     ****   -0.0980 
     11 C8          1.1190   -2.9290    0.5380 C.3     1     ****    0.1020 
     12 O2          1.6410   -4.2510    0.4500 O.3     1     ****   -0.4360 
     13 C9          1.2530   -2.4220    1.9670 C.3     1     ****    0.1130 
     14 O3          0.3840   -3.1620    2.8190 O.3     1     ****   -0.6000 
     15 N3          6.9860   -7.1510   -0.9200 N.pl3   1     ****   -0.9140 
     16 F1          4.8310   -8.0950   -2.4000 F       1     ****   -0.1600 
     17 H1          0.6130   -4.1020    2.7090 H       1     ****    0.4080 
     18 H2          7.7820   -6.8190   -0.3870 H       1     ****    0.4520 
     19 H3          7.1060   -7.9980   -1.4650 H       1     ****    0.4450 
     20 H4          2.6480   -6.6300   -2.1970 H       1     ****    0.1720 
     21 H5          1.3770   -5.0540   -1.4540 H       1     ****    0.0710 
     22 H6          3.1050   -2.8810   -2.0990 H       1     ****    0.0870 
     23 H7          1.3600   -3.0000   -2.3130 H       1     ****    0.0540 
     24 H8          2.8550   -1.7510   -0.0250 H       1     ****    0.0820 
     25 H9          1.3580   -1.1990   -0.7830 H       1     ****    0.0540 
     26 H10         0.0550   -2.9150    0.2500 H       1     ****    0.0710 
     27 H11         2.2730   -2.5450    2.3450 H       1     ****    0.0640 
     28 H12         0.9740   -1.3660    2.0390 H       1     ****    0.0680 
@<TRIPOS>BOND
     1  2 1 2
     2  3 2 1
     3  4 3 2
     4  5 4 1
     5  6 5 2
     6  7 1 1
     7  7 5 1
     8  8 7 1
     9  9 8 1
    10 10 9 1
    11 11 10 1
    12 12 8 1
    13 12 11 1
    14 13 11 1
    15 14 13 1
    16 15 3 1
    17 16 2 1
    18 17 14 1
    19 18 15 1
    20 19 15 1
    21 20 1 1
    22 21 8 1
    23 22 9 1
    24 23 9 1
    25 24 10 1
    26 25 10 1
    27 26 11 1
    28 27 13 1
    29 28 13 1
@<TRIPOS>SUBSTRUCTURE
1     ****    1
@<TRIPOS>MOLECULE
ZINC00004087
24 24 1 0 0 
SMALL
USER_CHARGES


@<TRIPOS>ATOM
      1 C1          5.2430   -7.2040   -1.0090 C.3     1     ****   -0.0790 
      2 C2          6.0380   -8.4630   -0.5910 C.3     1     ****   -0.0780 
      3 C3          4.7930   -8.9310    0.2060 C.3     1     ****   -0.1260 
      4 C4          4.2540   -7.4980    0.1500 C.3     1     ****   -0.1260 
      5 C5          4.5760   -6.7270    1.4390 C.3     1     ****    0.1040 
      6 C6          3.8940   -9.8990   -0.5780 C.3     1     ****    0.1050 
      7 H1          3.8810   -6.5570    3.3960 H       1     ****    0.4850 
      8 H2          2.6840   -6.9320    2.3170 H       1     ****    0.4690 
      9 H3          2.0920  -10.9210   -0.3490 H       1     ****    0.4850 
     10 H4          2.8840  -10.6840    1.0830 H       1     ****    0.4680 
     11 H5          4.7870   -7.2880   -2.0020 H       1     ****    0.1020 
     12 H6          5.7910   -6.2590   -0.9550 H       1     ****    0.0940 
     13 H7          6.3650   -9.1090   -1.4100 H       1     ****    0.0950 
     14 H8          6.9030   -8.2390    0.0440 H       1     ****    0.1020 
     15 H9          5.0600   -9.4350    1.1460 H       1     ****    0.0820 
     16 H10         3.2150   -7.2580   -0.1130 H       1     ****    0.0810 
     17 H11         5.5970   -6.9010    1.7930 H       1     ****    0.1240 
     18 H12         4.4360   -5.6520    1.2880 H       1     ****    0.1360 
     19 H13         3.5650   -9.4890   -1.5380 H       1     ****    0.1240 
     20 H14         4.4150  -10.8440   -0.7600 H       1     ****    0.1390 
     21 N1          3.6700   -7.1070    2.5520 N.4     1     ****   -0.8410 
     22 H15         3.7670   -8.0980    2.8060 H       1     ****    0.4490 
     23 N2          2.6640  -10.2480    0.1780 N.4     1     ****   -0.8410 
     24 H16         2.0750   -9.4250    0.3560 H       1     ****    0.4480 
@<TRIPOS>BOND
     1  2 1 1
     2  3 2 1
     3  4 1 1
     4  4 3 1
     5  5 4 1
     6  6 3 1
     7 11 1 1
     8 12 1 1
     9 13 2 1
    10 14 2 1
    11 15 3 1
    12 16 4 1
    13 17 5 1
    14 18 5 1
    15 19 6 1
    16 20 6 1
    17 21 5 1
    18 21 7 1
    19 21 8 1
    20 22 21 1
    21 23 6 1
    22 23 9 1
    23 23 10 1
    24 24 23 1
@<TRIPOS>SUBSTRUCTURE
1     ****    1
@<TRIPOS>MOLECULE
ZINC00004257
29 31 1 0 0 
SMALL
USER_CHARGES


@<TRIPOS>ATOM
      1 C1          4.2910    4.5900    0.7120 C.3     1     ****   -0.0910 
      2 C2          4.3790    6.0320    0.1640 C.3     1     ****   -0.0810 
      3 C3          3.5000    6.0190   -1.0430 C.2     1     ****   -0.1300 
      4 C4          3.0520    4.7940   -1.3320 C.2     1     ****   -0.1980 
      5 C5          3.5470    3.7730   -0.3660 C.3     1     ****    0.1070 
      6 N1          2.4430    3.0140    0.2010 N.pl3   1     ****   -0.0520 
      7 C6          1.3200    3.4520    0.8470 C.ar    1     ****    0.4910 
      8 C7          0.6410    2.2900    1.1590 C.ar    1     ****   -0.2840 
      9 C8         -0.5500    2.4660    1.8290 C.ar    1     ****    0.6490 
     10 N2         -0.9980    3.6940    2.1470 N.ar    1     ****   -0.7680 
     11 C9         -0.2410    4.7630    1.7880 C.ar    1     ****    0.9280 
     12 N3          0.9400    4.7070    1.1300 N.ar    1     ****   -0.7580 
     13 N4         -0.7180    6.0170    2.1250 N.pl3   1     ****   -0.9440 
     14 CL1        -1.4630    1.1070    2.2600 Cl      1     ****   -0.1040 
     15 N5          1.3480    1.2120    0.7080 N.2     1     ****   -0.1590 
     16 N6          2.4540    1.6640    0.1230 N.2     1     ****   -0.1390 
     17 C10         3.8660    7.0420    1.1920 C.3     1     ****    0.1330 
     18 O1          4.1140    8.3720    0.7500 O.3     1     ****   -0.5970 
     19 H1         -1.5960    6.1000    2.6160 H       1     ****    0.4510 
     20 H2         -0.1850    6.8370    1.8740 H       1     ****    0.4500 
     21 H3          5.0740    8.4670    0.6280 H       1     ****    0.3960 
     22 H4          3.8050    4.5500    1.6940 H       1     ****    0.0710 
     23 H5          5.3020    4.1870    0.8560 H       1     ****    0.0570 
     24 H6          5.4290    6.2510   -0.0870 H       1     ****    0.0590 
     25 H7          3.2760    6.8970   -1.6330 H       1     ****    0.1540 
     26 H8          2.4230    4.5680   -2.1830 H       1     ****    0.1530 
     27 H9          4.2580    3.0650   -0.8210 H       1     ****    0.0940 
     28 H10         2.7900    6.9410    1.3690 H       1     ****    0.0870 
     29 H11         4.3760    6.9120    2.1530 H       1     ****    0.0260 
@<TRIPOS>BOND
     1  2 1 1
     2  3 2 1
     3  4 3 2
     4  5 1 1
     5  5 4 1
     6  6 5 1
     7  7 6 1
     8  8 7 ar
     9  9 8 ar
    10 10 9 ar
    11 11 10 ar
    12 12 7 ar
    13 12 11 ar
    14 13 11 1
    15 14 9 1
    16 15 8 1
    17 16 6 1
    18 16 15 2
    19 17 2 1
    20 18 17 1
    21 19 13 1
    22 20 13 1
    23 21 18 1
    24 22 1 1
    25 23 1 1
    26 24 2 1
    27 25 3 1
    28 26 4 1
    29 27 5 1
    30 28 17 1
    31 29 17 1
@<TRIPOS>SUBSTRUCTURE
1     ****    1
@<TRIPOS>MOLECULE
ZINC00004318
31 32 1 0 0 
SMALL
USER_CHARGES


@<TRIPOS>ATOM
      1 C1          0.9500    5.7130    9.1310 C.3     1     ****    0.0970 
      2 C2          1.1200    5.2160    7.6940 C.3     1     ****    0.0970 
      3 N1          1.2680    6.5300    6.8840 N.4     1     ****   -0.6400 
      4 C3         -0.1210    7.2030    6.8570 C.3     1     ****    0.0960 
      5 C4         -0.2920    7.7010    8.3000 C.3     1     ****    0.0950 
      6 N2          1.0190    7.2540    8.9810 N.4     1     ****   -0.6400 
      7 C5          2.0110    7.3900    7.8630 C.3     1     ****    0.3150 
      8 C6          1.3520    7.9300   10.2890 C.3     1     ****    0.1140 
      9 C7          1.6020    9.4250   10.1500 C.3     1     ****   -0.0360 
     10 CL1         2.0300   10.1120   11.7380 Cl      1     ****   -0.0230 
     11 C8          1.9160    6.2900    5.5410 C.3     1     ****    0.1140 
     12 C9          2.2390    7.5730    4.7890 C.3     1     ****   -0.0360 
     13 CL2         3.0390    7.1790    3.2450 Cl      1     ****   -0.0230 
     14 H1          1.7810    5.3910    9.7680 H       1     ****    0.1510 
     15 H2         -0.0070    5.4420    9.5870 H       1     ****    0.1550 
     16 H3          2.0410    4.6340    7.5770 H       1     ****    0.1510 
     17 H4          0.2630    4.6550    7.3090 H       1     ****    0.1540 
     18 H5         -0.0970    8.0390    6.1550 H       1     ****    0.1490 
     19 H6         -0.8690    6.4670    6.5480 H       1     ****    0.1540 
     20 H7         -0.3550    8.7920    8.3320 H       1     ****    0.1490 
     21 H8         -1.1400    7.2550    8.8280 H       1     ****    0.1540 
     22 H9          2.9800    6.9520    8.1300 H       1     ****    0.1730 
     23 H10         2.0700    8.4260    7.5120 H       1     ****    0.1700 
     24 H11         0.5140    7.7280   10.9670 H       1     ****    0.1420 
     25 H12         2.2460    7.4330   10.6840 H       1     ****    0.1310 
     26 H13         2.4350    9.6370    9.4760 H       1     ****    0.0860 
     27 H14         0.7190    9.9630    9.8010 H       1     ****    0.0970 
     28 H15         2.8340    5.7220    5.7300 H       1     ****    0.1310 
     29 H16         1.2260    5.6570    4.9700 H       1     ****    0.1420 
     30 H17         1.3430    8.1470    4.5420 H       1     ****    0.0970 
     31 H18         2.9250    8.2120    5.3500 H       1     ****    0.0860 
@<TRIPOS>BOND
     1  2 1 1
     2  3 2 1
     3  4 3 1
     4  5 4 1
     5  6 1 1
     6  6 5 1
     7  7 3 1
     8  7 6 1
     9  8 6 1
    10  9 8 1
    11 10 9 1
    12 11 3 1
    13 12 11 1
    14 13 12 1
    15 14 1 1
    16 15 1 1
    17 16 2 1
    18 17 2 1
    19 18 4 1
    20 19 4 1
    21 20 5 1
    22 21 5 1
    23 22 7 1
    24 23 7 1
    25 24 8 1
    26 25 8 1
    27 26 9 1
    28 27 9 1
    29 28 11 1
    30 29 11 1
    31 30 12 1
    32 31 12 1
@<TRIPOS>SUBSTRUCTURE
1     ****    1
@<TRIPOS>MOLECULE
ZINC00004448
41 44 1 0 0 
SMALL
USER_CHARGES


@<TRIPOS>ATOM
      1 C1         -1.5660    5.4650    2.8440 C.3     1     ****   -0.1230 
      2 C2         -2.5810    6.1460    2.0030 C.2     1     ****    0.3940 
      3 N1         -3.2120    7.2600    2.3210 N.2     1     ****   -0.6670 
      4 C3         -4.0620    7.5150    1.2780 C.2     1     ****    0.2900 
      5 C4         -3.9530    6.5500    0.3080 C.2     1     ****   -0.2580 
      6 N2         -2.9940    5.6900    0.7710 N.pl3   1     ****   -0.2030 
      7 C5         -2.5560    4.4940    0.0730 C.3     1     ****    0.0400 
      8 C6         -1.7030    4.7750   -1.1760 C.3     1     ****   -0.1820 
      9 C7         -0.3610    5.4580   -0.7940 C.3     1     ****   -0.0690 
     10 C8          0.5260    5.7220   -2.0200 C.3     1     ****   -0.0330 
     11 C9          0.6210    4.4760   -2.8280 C.2     1     ****    0.0090 
     12 C10        -0.2660    3.4200   -2.7820 C.2     1     ****   -0.2440 
     13 C11         0.2080    2.4190   -3.6750 C.ar    1     ****   -0.0420 
     14 C12        -0.2460    1.1350   -4.0450 C.ar    1     ****   -0.0820 
     15 C13         0.4810    0.3850   -4.9760 C.ar    1     ****   -0.1460 
     16 C14         1.6460    0.8940   -5.5400 C.ar    1     ****   -0.1170 
     17 C15         2.1170    2.1630   -5.1940 C.ar    1     ****   -0.1370 
     18 C16         1.3820    2.9130   -4.2610 C.ar    1     ****   -0.0580 
     19 N3          1.5970    4.1780   -3.7430 N.pl3   1     ****   -0.0580 
     20 C17         2.6970    5.0430   -4.1100 C.3     1     ****    0.0250 
     21 C18        -1.4340    3.4530   -1.9120 C.2     1     ****    0.6150 
     22 O1         -2.1940    2.4920   -1.8250 O.2     1     ****   -0.5510 
     23 H1         -1.3780    6.0410    3.7560 H       1     ****    0.0750 
     24 H2         -1.9120    4.4700    3.1400 H       1     ****    0.0510 
     25 H3         -0.6170    5.3660    2.3100 H       1     ****    0.0420 
     26 H4         -4.7130    8.3780    1.2810 H       1     ****    0.0410 
     27 H5         -4.4540    6.4090   -0.6400 H       1     ****    0.1760 
     28 H6         -2.0170    3.8510    0.7780 H       1     ****    0.0710 
     29 H7         -3.4740    3.9560   -0.1980 H       1     ****    0.0870 
     30 H8         -2.2320    5.4790   -1.8400 H       1     ****    0.0830 
     31 H9         -0.5430    6.4100   -0.2840 H       1     ****    0.0660 
     32 H10         0.1850    4.8140   -0.0910 H       1     ****    0.0540 
     33 H11         0.0890    6.5200   -2.6310 H       1     ****    0.0670 
     34 H12         1.5140    6.0550   -1.6840 H       1     ****    0.0610 
     35 H13        -1.1520    0.7210   -3.6130 H       1     ****    0.1580 
     36 H14         0.1310   -0.6040   -5.2580 H       1     ****    0.1340 
     37 H15         2.1990    0.2970   -6.2610 H       1     ****    0.1320 
     38 H16         3.0280    2.5480   -5.6400 H       1     ****    0.1320 
     39 H17         2.9230    4.9110   -5.1710 H       1     ****    0.0620 
     40 H18         2.4180    6.0860   -3.9420 H       1     ****    0.0550 
     41 H19         3.5590    4.7750   -3.4960 H       1     ****    0.0470 
@<TRIPOS>BOND
     1  2 1 1
     2  3 2 2
     3  4 3 1
     4  5 4 2
     5  6 2 1
     6  6 5 1
     7  7 6 1
     8  8 7 1
     9  9 8 1
    10 10 9 1
    11 11 10 1
    12 12 11 ar
    13 13 12 1
    14 14 13 ar
    15 15 14 ar
    16 16 15 ar
    17 17 16 ar
    18 18 13 ar
    19 18 17 ar
    20 19 11 1
    21 19 18 1
    22 20 19 1
    23 21 8 1
    24 21 12 1
    25 22 21 2
    26 23 1 1
    27 24 1 1
    28 25 1 1
    29 26 4 1
    30 27 5 1
    31 28 7 1
    32 29 7 1
    33 30 8 1
    34 31 9 1
    35 32 9 1
    36 33 10 1
    37 34 10 1
    38 35 14 1
    39 36 15 1
    40 37 16 1
    41 38 17 1
    42 39 20 1
    43 40 20 1
    44 41 20 1
@<TRIPOS>SUBSTRUCTURE
1     ****    1
@<TRIPOS>MOLECULE
ZINC00004495
30 32 1 0 0 
SMALL
USER_CHARGES


@<TRIPOS>ATOM
      1 C1          8.0920   -6.3120    2.6550 C.ar    1     ****   -0.0550 
      2 C2          8.9500   -7.4140    2.6220 C.ar    1     ****   -0.1650 
      3 C3          8.6640   -8.4840    1.7810 C.ar    1     ****    0.1460 
      4 C4          7.5310   -8.4690    0.9730 C.ar    1     ****   -0.2210 
      5 C5          6.6740   -7.3650    1.0080 C.ar    1     ****   -0.0570 
      6 C6          6.9470   -6.2690    1.8430 C.ar    1     ****   -0.1140 
      7 C7          6.0450   -5.1020    1.9030 C.2     1     ****    0.1890 
      8 C8          5.5170   -4.5590    0.7960 C.2     1     ****   -0.3100 
      9 C9          4.6280   -3.3860    0.9130 C.2     1     ****    0.5980 
     10 O1          4.1390   -2.8840   -0.0900 O.2     1     ****   -0.5240 
     11 C10         4.3800   -2.8800    2.2800 C.ar    1     ****   -0.2770 
     12 C11         3.5560   -1.7780    2.5410 C.ar    1     ****    0.2420 
     13 C12         3.3570   -1.3390    3.8520 C.ar    1     ****   -0.2940 
     14 C13         3.9840   -2.0060    4.9010 C.ar    1     ****    0.2180 
     15 C14         4.8070   -3.1030    4.6590 C.ar    1     ****   -0.2920 
     16 C15         5.0020   -3.5370    3.3460 C.ar    1     ****    0.2160 
     17 O2          5.8250   -4.6240    3.1830 O.3     1     ****   -0.2260 
     18 O3          3.7700   -1.5530    6.1720 O.3     1     ****   -0.4870 
     19 O4          2.9350   -1.1160    1.5170 O.3     1     ****   -0.4490 
     20 O5          9.5220   -9.5470    1.7720 O.3     1     ****   -0.4920 
     21 H1          4.2680   -2.1130    6.7910 H       1     ****    0.4290 
     22 H2          2.4090   -0.3850    1.8820 H       1     ****    0.4240 
     23 H3          9.1910  -10.2080    1.1410 H       1     ****    0.4240 
     24 H4          8.3350   -5.4840    3.3170 H       1     ****    0.1500 
     25 H5          9.8350   -7.4300    3.2520 H       1     ****    0.1570 
     26 H6          7.2990   -9.3040    0.3190 H       1     ****    0.1410 
     27 H7          5.7870   -7.3790    0.3790 H       1     ****    0.1450 
     28 H8          5.7130   -4.9320   -0.2030 H       1     ****    0.1680 
     29 H9          2.7190   -0.4850    4.0620 H       1     ****    0.1600 
     30 H10         5.2950   -3.6210    5.4800 H       1     ****    0.1580 
@<TRIPOS>BOND
     1  2 1 ar
     2  3 2 ar
     3  4 3 ar
     4  5 4 ar
     5  6 1 ar
     6  6 5 ar
     7  7 6 1
     8  8 7 2
     9  9 8 1
    10 10 9 2
    11 11 9 1
    12 12 11 ar
    13 13 12 ar
    14 14 13 ar
    15 15 14 ar
    16 16 11 ar
    17 16 15 ar
    18 17 7 1
    19 17 16 1
    20 18 14 1
    21 19 12 1
    22 20 3 1
    23 21 18 1
    24 22 19 1
    25 23 20 1
    26 24 1 1
    27 25 2 1
    28 26 4 1
    29 27 5 1
    30 28 8 1
    31 29 13 1
    32 30 15 1
@<TRIPOS>SUBSTRUCTURE
1     ****    1
@<TRIPOS>MOLECULE
ZINC00005239
29 31 1 0 0 
SMALL
USER_CHARGES


@<TRIPOS>ATOM
      1 C1          5.7730   -9.1290    0.3120 C.ar    1     ****   -0.1170 
      2 C2          4.4460   -9.1010    0.7400 C.ar    1     ****   -0.1360 
      3 C3          3.7530   -7.8910    0.7910 C.ar    1     ****   -0.1010 
      4 C4          4.3790   -6.6980    0.4060 C.ar    1     ****   -0.0990 
      5 C5          5.7160   -6.7350   -0.0130 C.ar    1     ****   -0.1010 
      6 C6          6.4080   -7.9460   -0.0630 C.ar    1     ****   -0.1360 
      7 C7          3.6390   -5.3880    0.4830 C.3     1     ****    0.1810 
      8 O1          3.8510   -4.8440    1.7820 O.3     1     ****   -0.4180 
      9 C8          3.2450   -3.6310    2.0460 C.ar    1     ****    0.7580 
     10 C9          2.4460   -2.8720    1.1860 C.ar    1     ****   -0.2690 
     11 C10         1.9560   -1.6830    1.6990 C.ar    1     ****    0.4910 
     12 N1          1.2170   -1.1270    0.6950 N.pl3   1     ****   -0.3890 
     13 C11         1.2810   -1.9790   -0.3730 C.2     1     ****    0.3970 
     14 N2          2.0130   -3.0400   -0.1100 N.2     1     ****   -0.5360 
     15 N3          2.1570   -1.1750    2.9210 N.ar    1     ****   -0.7880 
     16 C12         2.9370   -1.9670    3.6870 C.ar    1     ****    0.9190 
     17 N4          3.4750   -3.1510    3.2990 N.ar    1     ****   -0.7860 
     18 N5          3.2110   -1.5380    4.9720 N.pl3   1     ****   -0.9360 
     19 H1          0.7170   -0.2490    0.7370 H       1     ****    0.3180 
     20 H2          2.8290   -0.6620    5.2980 H       1     ****    0.4340 
     21 H3          3.7920   -2.1070    5.5720 H       1     ****    0.4380 
     22 H4          6.3120  -10.0710    0.2740 H       1     ****    0.1320 
     23 H5          3.9530  -10.0220    1.0370 H       1     ****    0.1330 
     24 H6          2.7210   -7.8840    1.1330 H       1     ****    0.1360 
     25 H7          6.2270   -5.8190   -0.3010 H       1     ****    0.1360 
     26 H8          7.4430   -7.9660   -0.3910 H       1     ****    0.1330 
     27 H9          4.0240   -4.7100   -0.2900 H       1     ****    0.0680 
     28 H10         2.5710   -5.5660    0.3060 H       1     ****    0.0670 
     29 H11         0.7760   -1.7700   -1.3060 H       1     ****    0.0730 
@<TRIPOS>BOND
     1  2 1 ar
     2  3 2 ar
     3  4 3 ar
     4  5 4 ar
     5  6 1 ar
     6  6 5 ar
     7  7 4 1
     8  8 7 1
     9  9 8 1
    10 10 9 ar
    11 11 10 ar
    12 12 11 1
    13 13 12 1
    14 14 10 1
    15 14 13 2
    16 15 11 ar
    17 16 15 ar
    18 17 9 ar
    19 17 16 ar
    20 18 16 1
    21 19 12 1
    22 20 18 1
    23 21 18 1
    24 22 1 1
    25 23 2 1
    26 24 3 1
    27 25 5 1
    28 26 6 1
    29 27 7 1
    30 28 7 1
    31 29 13 1
@<TRIPOS>SUBSTRUCTURE
1     ****    1
@<TRIPOS>MOLECULE
ZINC00005368
40 43 1 0 0 
SMALL
USER_CHARGES


@<TRIPOS>ATOM
      1 C1         -1.9760    2.6410   -3.1460 C.3     1     ****   -0.0350 
      2 C2         -2.9700    3.5660   -2.5060 C.2     1     ****   -0.2710 
      3 C3         -4.0260    4.1480   -3.1060 C.2     1     ****    0.1570 
      4 N1         -4.8600    5.0180   -2.4450 N.pl3   1     ****   -0.6150 
      5 C4         -4.6970    5.4010   -1.1000 C.ar    1     ****    0.1760 
      6 C5         -5.5840    6.3550   -0.5180 C.ar    1     ****   -0.1070 
      7 C6         -5.4450    6.6420    0.8700 C.ar    1     ****   -0.0040 
      8 C7         -6.1990    7.4360    1.8180 C.ar    1     ****   -0.0830 
      9 C8         -7.3890    8.2000    1.7640 C.ar    1     ****   -0.0670 
     10 C9         -7.8420    8.8630    2.9130 C.ar    1     ****   -0.0220 
     11 C10        -7.1450    8.7800    4.1140 C.ar    1     ****   -0.0870 
     12 C11        -5.9780    8.0210    4.1980 C.ar    1     ****   -0.1540 
     13 C12        -5.5390    7.3630    3.0420 C.ar    1     ****   -0.0050 
     14 N2         -4.4510    6.5530    2.8620 N.pl3   1     ****   -0.1660 
     15 C13        -4.3790    6.0740    1.5710 C.ar    1     ****   -0.0740 
     16 C14        -3.4350    5.1880    1.0080 C.ar    1     ****    0.0020 
     17 C15        -3.6390    4.8430   -0.3520 C.ar    1     ****   -0.1780 
     18 C16        -2.7360    3.8670   -1.0540 C.2     1     ****    0.5900 
     19 O1         -1.8170    3.3000   -0.4710 O.2     1     ****   -0.5820 
     20 C17        -2.3010    4.6380    1.8310 C.3     1     ****   -0.0560 
     21 CL1        -9.2910    9.7930    2.8360 Cl      1     ****   -0.0990 
     22 C18        -6.6520    6.9990   -1.3690 C.3     1     ****   -0.0540 
     23 C19        -4.4070    3.8880   -4.5420 C.3     1     ****   -0.0730 
     24 H1         -3.8000    6.3180    3.5970 H       1     ****    0.2850 
     25 H2         -5.6600    5.3620   -2.9590 H       1     ****    0.4490 
     26 H3         -0.9530    2.9370   -2.8880 H       1     ****    0.0710 
     27 H4         -2.1360    1.6150   -2.7990 H       1     ****    0.0380 
     28 H5         -2.0240    2.6440   -4.2380 H       1     ****    0.0290 
     29 H6         -7.9670    8.2700    0.8480 H       1     ****    0.1500 
     30 H7         -7.5040    9.2970    5.0000 H       1     ****    0.1490 
     31 H8         -5.4330    7.9420    5.1330 H       1     ****    0.1450 
     32 H9         -1.3390    4.8830    1.3700 H       1     ****    0.0770 
     33 H10        -2.2750    5.0600    2.8400 H       1     ****    0.0270 
     34 H11        -2.4020    3.5540    1.9440 H       1     ****    0.0710 
     35 H12        -6.9420    7.9740   -0.9740 H       1     ****    0.0560 
     36 H13        -6.2900    7.2100   -2.3800 H       1     ****    0.0380 
     37 H14        -7.5320    6.3530   -1.4230 H       1     ****    0.0450 
     38 H15        -5.4950    3.7990   -4.6400 H       1     ****    0.0460 
     39 H16        -4.0750    4.7180   -5.1750 H       1     ****    0.0640 
     40 H17        -3.9920    2.9590   -4.9390 H       1     ****    0.0700 
@<TRIPOS>BOND
     1  2 1 1
     2  3 2 2
     3  4 3 1
     4  5 4 1
     5  6 5 ar
     6  7 6 ar
     7  8 7 1
     8  9 8 ar
     9 10 9 ar
    10 11 10 ar
    11 12 11 ar
    12 13 8 ar
    13 13 12 ar
    14 14 13 1
    15 15 7 ar
    16 15 14 1
    17 16 15 ar
    18 17 5 ar
    19 17 16 ar
    20 18 2 1
    21 18 17 1
    22 19 18 2
    23 20 16 1
    24 21 10 1
    25 22 6 1
    26 23 3 1
    27 24 14 1
    28 25 4 1
    29 26 1 1
    30 27 1 1
    31 28 1 1
    32 29 9 1
    33 30 11 1
    34 31 12 1
    35 32 20 1
    36 33 20 1
    37 34 20 1
    38 35 22 1
    39 36 22 1
    40 37 22 1
    41 38 23 1
    42 39 23 1
    43 40 23 1
@<TRIPOS>SUBSTRUCTURE
1     ****    1
@<TRIPOS>MOLECULE
ZINC00005913
23 24 1 0 0 
SMALL
USER_CHARGES


@<TRIPOS>ATOM
      1 C1          4.3330   -9.4560   -1.2010 C.ar    1     ****   -0.1190 
      2 C2          4.3670   -9.3300    0.1860 C.ar    1     ****   -0.1320 
      3 C3          4.0480   -8.1110    0.7860 C.ar    1     ****   -0.1090 
      4 C4          3.6950   -7.0030    0.0020 C.ar    1     ****   -0.0910 
      5 C5          3.6590   -7.1430   -1.3930 C.ar    1     ****   -0.1100 
      6 C6          3.9780   -8.3630   -1.9910 C.ar    1     ****   -0.1320 
      7 C7          3.3340   -5.6920    0.6480 C.3     1     ****    0.0230 
      8 S1          1.5560   -5.5950    1.0090 S.3     1     ****   -0.1950 
      9 C8          1.4360   -4.0080    1.7350 C.2     1     ****    0.3820 
     10 N1          2.4670   -3.2100    1.9050 N.2     1     ****   -0.3250 
     11 N2          2.1060   -2.0170    2.5000 N.2     1     ****   -0.3610 
     12 C9          0.8160   -1.9480    2.7610 C.2     1     ****    0.5520 
     13 S2         -0.0510   -3.3610    2.2880 S.2     1     ****   -0.1610 
     14 N3          0.1840   -0.9080    3.3360 N.pl3   1     ****   -0.8810 
     15 H1          0.6850   -0.0720    3.6170 H       1     ****    0.4070 
     16 H2         -0.8150   -0.9160    3.5100 H       1     ****    0.3940 
     17 H3          4.5810  -10.4050   -1.6670 H       1     ****    0.1340 
     18 H4          4.6410  -10.1820    0.8020 H       1     ****    0.1350 
     19 H5          4.0760   -8.0300    1.8700 H       1     ****    0.1380 
     20 H6          3.3800   -6.3020   -2.0230 H       1     ****    0.1370 
     21 H7          3.9490   -8.4620   -3.0720 H       1     ****    0.1350 
     22 H8          3.9050   -5.5710    1.5770 H       1     ****    0.0890 
     23 H9          3.6210   -4.8650   -0.0120 H       1     ****    0.0900 
@<TRIPOS>BOND
     1  2 1 ar
     2  3 2 ar
     3  4 3 ar
     4  5 4 ar
     5  6 1 ar
     6  6 5 ar
     7  7 4 1
     8  8 7 1
     9  9 8 1
    10 10 9 2
    11 11 10 1
    12 12 11 2
    13 13 9 1
    14 13 12 1
    15 14 12 1
    16 15 14 1
    17 16 14 1
    18 17 1 1
    19 18 2 1
    20 19 3 1
    21 20 5 1
    22 21 6 1
    23 22 7 1
    24 23 7 1
@<TRIPOS>SUBSTRUCTURE
1     ****    1
@<TRIPOS>MOLECULE
ZINC00006310
29 30 1 0 0 
SMALL
USER_CHARGES


@<TRIPOS>ATOM
      1 C1          5.3010   -8.3070   -0.2520 C.ar    1     ****   -0.2340 
      2 C2          4.0990   -7.6030   -0.1610 C.ar    1     ****    0.0210 
      3 C3          4.0620   -6.2670   -0.5520 C.ar    1     ****   -0.4330 
      4 C4          5.2030   -5.6310   -1.0370 C.ar    1     ****    0.0370 
      5 C5          6.3990   -6.3450   -1.1240 C.ar    1     ****   -0.2350 
      6 C6          6.4650   -7.6860   -0.7260 C.ar    1     ****    0.2240 
      7 N1          7.6510   -8.3960   -0.8310 N.pl3   1     ****   -0.8430 
      8 S1          2.5560   -5.3490   -0.4390 S.o2    1     ****    1.4600 
      9 O1          2.2650   -4.9000   -1.7870 O.3     1     ****   -0.6710 
     10 O2          1.5920   -6.1440    0.2990 O.3     1     ****   -0.6700 
     11 C7          2.8740   -3.9270    0.5630 C.ar    1     ****   -0.4430 
     12 C8          3.3770   -4.1100    1.8500 C.ar    1     ****    0.0410 
     13 C9          3.6380   -2.9940    2.6460 C.ar    1     ****   -0.2420 
     14 C10         3.4040   -1.6990    2.1660 C.ar    1     ****    0.2410 
     15 C11         2.8870   -1.5420    0.8730 C.ar    1     ****   -0.2400 
     16 C12         2.6220   -2.6510    0.0670 C.ar    1     ****    0.0250 
     17 N2          3.6480   -0.5950    2.9680 N.pl3   1     ****   -0.8600 
     18 H1          8.4970   -7.9380   -1.1410 H       1     ****    0.4130 
     19 H2          7.7040   -9.3550   -0.5120 H       1     ****    0.4140 
     20 H3          4.0520   -0.7090    3.8870 H       1     ****    0.4230 
     21 H4          3.5100    0.3400    2.6070 H       1     ****    0.4230 
     22 H5          5.3240   -9.3510    0.0520 H       1     ****    0.1380 
     23 H6          3.2150   -8.1130    0.2120 H       1     ****    0.1610 
     24 H7          5.1790   -4.5920   -1.3540 H       1     ****    0.1400 
     25 H8          7.2860   -5.8440   -1.5070 H       1     ****    0.1370 
     26 H9          3.5660   -5.1040    2.2460 H       1     ****    0.1390 
     27 H10         4.0270   -3.1430    3.6510 H       1     ****    0.1370 
     28 H11         2.6860   -0.5470    0.4830 H       1     ****    0.1380 
     29 H12         2.2220   -2.4950   -0.9310 H       1     ****    0.1600 
@<TRIPOS>BOND
     1  2 1 ar
     2  3 2 ar
     3  4 3 ar
     4  5 4 ar
     5  6 1 ar
     6  6 5 ar
     7  7 6 1
     8  8 3 1
     9  9 8 1
    10 10 8 1
    11 11 8 1
    12 12 11 ar
    13 13 12 ar
    14 14 13 ar
    15 15 14 ar
    16 16 11 ar
    17 16 15 ar
    18 17 14 1
    19 18 7 1
    20 19 7 1
    21 20 17 1
    22 21 17 1
    23 22 1 1
    24 23 2 1
    25 24 4 1
    26 25 5 1
    27 26 12 1
    28 27 13 1
    29 28 15 1
    30 29 16 1
@<TRIPOS>SUBSTRUCTURE
1     ****    1
@<TRIPOS>MOLECULE
ZINC00006561
35 37 1 0 0 
SMALL
USER_CHARGES


@<TRIPOS>ATOM
      1 C1          3.3480  -10.9960   -1.7340 C.ar    1     ****   -0.1430 
      2 C2          4.4200  -11.3330   -2.5620 C.ar    1     ****   -0.0980 
      3 C3          5.7220  -11.0270   -2.1730 C.ar    1     ****   -0.1640 
      4 C4          5.9430  -10.3850   -0.9570 C.ar    1     ****    0.1460 
      5 C5          4.8830  -10.0460   -0.1090 C.ar    1     ****   -0.1150 
      6 C6          3.5780  -10.3530   -0.5160 C.ar    1     ****   -0.0940 
      7 C7          5.1280   -9.3320    1.1930 C.3     1     ****   -0.1010 
      8 C8          4.9340   -7.8290    1.0870 C.2     1     ****    0.6610 
      9 O1          5.1550   -7.2160    0.0460 O.2     1     ****   -0.5430 
     10 N1          4.5700   -7.2760    2.3090 N.am    1     ****   -0.4730 
     11 C9          4.1790   -5.9790    2.6040 C.2     1     ****   -0.0140 
     12 C10         3.5290   -5.1060    1.8140 C.2     1     ****   -0.0520 
     13 C11         3.1970   -3.7220    2.2620 C.2     1     ****    0.5790 
     14 O2          2.6140   -2.9230    1.5370 O.2     1     ****   -0.4860 
     15 C12         3.5920   -3.3190    3.6210 C.ar    1     ****   -0.1260 
     16 C13         3.3290   -2.0160    4.0630 C.ar    1     ****   -0.0840 
     17 C14         3.6900   -1.6290    5.3540 C.ar    1     ****   -0.1100 
     18 C15         4.3110   -2.5390    6.2060 C.ar    1     ****   -0.1170 
     19 C16         4.5730   -3.8380    5.7680 C.ar    1     ****   -0.0790 
     20 C17         4.2130   -4.2270    4.4710 C.ar    1     ****   -0.1350 
     21 C18         4.4960   -5.5980    4.0190 C.2     1     ****    0.5680 
     22 O3          4.9940   -6.4110    4.7930 O.2     1     ****   -0.5240 
     23 CL1         2.8570   -5.5030    0.2650 Cl      1     ****   -0.0290 
     24 F1          7.2030  -10.0910   -0.6020 F       1     ****   -0.1370 
     25 H1          4.7740   -7.8450    3.1300 H       1     ****    0.3220 
     26 H2          2.3330  -11.2310   -2.0400 H       1     ****    0.1390 
     27 H3          4.2380  -11.8320   -3.5090 H       1     ****    0.1390 
     28 H4          6.5590  -11.2820   -2.8140 H       1     ****    0.1510 
     29 H5          2.7310  -10.0910    0.1140 H       1     ****    0.1390 
     30 H6          4.4550   -9.7460    1.9550 H       1     ****    0.0690 
     31 H7          6.1480   -9.5170    1.5500 H       1     ****    0.0940 
     32 H8          2.8430   -1.2900    3.4160 H       1     ****    0.1640 
     33 H9          3.4850   -0.6180    5.6950 H       1     ****    0.1450 
     34 H10         4.5910   -2.2380    7.2110 H       1     ****    0.1450 
     35 H11         5.0590   -4.5310    6.4490 H       1     ****    0.1610 
@<TRIPOS>BOND
     1  2 1 ar
     2  3 2 ar
     3  4 3 ar
     4  5 4 ar
     5  6 1 ar
     6  6 5 ar
     7  7 5 1
     8  8 7 1
     9  9 8 2
    10 10 8 1
    11 11 10 1
    12 12 11 2
    13 13 12 1
    14 14 13 2
    15 15 13 1
    16 16 15 ar
    17 17 16 ar
    18 18 17 ar
    19 19 18 ar
    20 20 15 ar
    21 20 19 ar
    22 21 11 1
    23 21 20 1
    24 22 21 2
    25 23 12 1
    26 24 4 1
    27 25 10 1
    28 26 1 1
    29 27 2 1
    30 28 3 1
    31 29 6 1
    32 30 7 1
    33 31 7 1
    34 32 16 1
    35 33 17 1
    36 34 18 1
    37 35 19 1
@<TRIPOS>SUBSTRUCTURE
1     ****    1
@<TRIPOS>MOLECULE
ZINC00006873
26 27 1 0 0 
SMALL
USER_CHARGES


@<TRIPOS>ATOM
      1 C1          4.6250   -7.0040   -0.4880 C.2     1     ****   -0.4200 
      2 C2          4.2070   -5.7750   -0.7870 C.2     1     ****    0.0690 
      3 N1          2.9450   -5.3310   -0.4540 N.am    1     ****   -0.3950 
      4 C3          2.0430   -6.1830    0.2150 C.2     1     ****    0.8410 
      5 O1          0.9050   -5.8170    0.5150 O.2     1     ****   -0.6240 
      6 N2          2.4620   -7.4610    0.5360 N.2     1     ****   -0.7260 
      7 C4          3.6590   -7.8730    0.2230 C.2     1     ****    0.7640 
      8 N3          4.0460   -9.1480    0.5560 N.pl3   1     ****   -0.9280 
      9 C5          2.5620   -3.9630   -0.8370 C.3     1     ****    0.2830 
     10 C6          1.4670   -3.9090   -1.8810 C.3     1     ****    0.1080 
     11 O2          0.9080   -2.6110   -1.6740 O.3     1     ****   -0.4260 
     12 C7          1.1350   -2.3100   -0.2890 C.3     1     ****    0.3040 
     13 O3          2.0530   -3.2550    0.2760 O.3     1     ****   -0.4540 
     14 C8         -0.1860   -2.3810    0.4740 C.3     1     ****    0.0890 
     15 O4         -0.0110   -1.8640    1.7870 O.3     1     ****   -0.5920 
     16 H1          3.4050   -9.7650    1.0430 H       1     ****    0.4520 
     17 H2          4.9660   -9.5110    0.3340 H       1     ****    0.4390 
     18 H3         -0.8610   -1.9660    2.2480 H       1     ****    0.3970 
     19 H4          5.6110   -7.3700   -0.7400 H       1     ****    0.1560 
     20 H5          4.8600   -5.0850   -1.3090 H       1     ****    0.1560 
     21 H6          3.4480   -3.4530   -1.2480 H       1     ****    0.0780 
     22 H7          1.8420   -4.0100   -2.9030 H       1     ****    0.0700 
     23 H8          0.6730   -4.6450   -1.7280 H       1     ****    0.0980 
     24 H9          1.5410   -1.2910   -0.2010 H       1     ****    0.0980 
     25 H10        -0.9580   -1.7940   -0.0360 H       1     ****    0.0980 
     26 H11        -0.5370   -3.4150    0.5530 H       1     ****    0.0670 
@<TRIPOS>BOND
     1  2 1 2
     2  3 2 1
     3  4 3 1
     4  5 4 2
     5  6 4 1
     6  7 1 1
     7  7 6 2
     8  8 7 1
     9  9 3 1
    10 10 9 1
    11 11 10 1
    12 12 11 1
    13 13 9 1
    14 13 12 1
    15 14 12 1
    16 15 14 1
    17 16 8 1
    18 17 8 1
    19 18 15 1
    20 19 1 1
    21 20 2 1
    22 21 9 1
    23 22 10 1
    24 23 10 1
    25 24 12 1
    26 25 14 1
    27 26 14 1
@<TRIPOS>SUBSTRUCTURE
1     ****    1
@<TRIPOS>MOLECULE
ZINC00007993
16 15 1 0 0 
SMALL
USER_CHARGES


@<TRIPOS>ATOM
      1 C1          3.2610   -8.9050    0.1000 C.3     1     ****   -0.0540 
      2 C2          4.6200   -8.3360   -0.3180 C.3     1     ****   -0.1860 
      3 C3          5.5490   -8.2770    0.8990 C.3     1     ****   -0.0600 
      4 C4          5.2320   -9.2190   -1.4100 C.3     1     ****   -0.0610 
      5 C5          4.5160   -6.8950   -0.8930 C.2     1     ****    0.9200 
      6 O1          3.3550   -6.3980   -0.9360 O.co2   1     ****   -0.8430 
      7 H1          2.5690   -8.9510   -0.7480 H       1     ****    0.0320 
      8 H2          3.3630   -9.9200    0.5010 H       1     ****   -0.0200 
      9 H3          2.7920   -8.2880    0.8760 H       1     ****    0.0310 
     10 H4          6.5540   -7.9330    0.6310 H       1     ****    0.0420 
     11 H5          5.1600   -7.5890    1.6580 H       1     ****    0.0180 
     12 H6          5.6540   -9.2640    1.3630 H       1     ****   -0.0150 
     13 H7          6.2350   -8.8830   -1.6960 H       1     ****    0.0430 
     14 H8          5.3200  -10.2590   -1.0730 H       1     ****   -0.0150 
     15 H9          4.6140   -9.2120   -2.3160 H       1     ****    0.0180 
     16 O2          5.6100   -6.3720   -1.2560 O.co2   1     ****   -0.8480 
@<TRIPOS>BOND
     1  2 1 1
     2  3 2 1
     3  4 2 1
     4  5 2 1
     5  6 5 1
     6  7 1 1
     7  8 1 1
     8  9 1 1
     9 10 3 1
    10 11 3 1
    11 12 3 1
    12 13 4 1
    13 14 4 1
    14 15 4 1
    15 16 5 2
@<TRIPOS>SUBSTRUCTURE
1     ****    1
@<TRIPOS>MOLECULE
ZINC00008028
26 27 1 0 0 
SMALL
USER_CHARGES


@<TRIPOS>ATOM
      1 C1          4.7670   -7.9200   -0.7010 C.3     1     ****    0.1090 
      2 O1          3.4560   -7.5280   -0.3140 O.3     1     ****   -0.3120 
      3 C2          3.2020   -6.1830   -0.2230 C.ar    1     ****    0.0930 
      4 C3          4.1420   -5.1680   -0.4810 C.ar    1     ****   -0.1520 
      5 C4          3.7960   -3.8160   -0.3370 C.ar    1     ****   -0.0080 
      6 C5          2.5140   -3.4750    0.0710 C.ar    1     ****   -0.0490 
      7 C6          1.5930   -4.4860    0.3190 C.ar    1     ****   -0.1760 
      8 C7          1.9000   -5.8300    0.1630 C.ar    1     ****    0.1620 
      9 O2          0.9720   -6.7910    0.4560 O.3     1     ****   -0.3190 
     10 C8          0.2740   -7.1820   -0.7280 C.3     1     ****    0.1210 
     11 C9          0.3420   -3.8660    0.7440 C.2     1     ****    0.5900 
     12 O3         -0.6710   -4.4740    1.0410 O.2     1     ****   -0.5050 
     13 C10         0.5000   -2.3680    0.7580 C.3     1     ****   -0.1860 
     14 C11         1.9420   -2.1100    0.3000 C.3     1     ****   -0.0380 
     15 BR1         5.0990   -2.4910   -0.6950 Br      1     ****   -0.0770 
     16 H1          4.7950   -9.0130   -0.7220 H       1     ****    0.0730 
     17 H2          5.0040   -7.5620   -1.7080 H       1     ****    0.0330 
     18 H3          5.5120   -7.5820    0.0270 H       1     ****    0.0400 
     19 H4          5.1540   -5.4140   -0.7910 H       1     ****    0.1550 
     20 H5         -0.4960   -7.9040   -0.4390 H       1     ****    0.0690 
     21 H6         -0.2240   -6.3270   -1.1990 H       1     ****    0.0380 
     22 H7          0.9450   -7.6700   -1.4420 H       1     ****    0.0350 
     23 H8         -0.2180   -1.9120    0.0700 H       1     ****    0.0800 
     24 H9          0.3360   -1.9880    1.7710 H       1     ****    0.0820 
     25 H10         2.4990   -1.5730    1.0760 H       1     ****    0.0720 
     26 H11         1.9510   -1.5200   -0.6220 H       1     ****    0.0700 
@<TRIPOS>BOND
     1  2 1 1
     2  3 2 1
     3  4 3 ar
     4  5 4 ar
     5  6 5 ar
     6  7 6 ar
     7  8 3 ar
     8  8 7 ar
     9  9 8 1
    10 10 9 1
    11 11 7 1
    12 12 11 2
    13 13 11 1
    14 14 6 1
    15 14 13 1
    16 15 5 1
    17 16 1 1
    18 17 1 1
    19 18 1 1
    20 19 4 1
    21 20 10 1
    22 21 10 1
    23 22 10 1
    24 23 13 1
    25 24 13 1
    26 25 14 1
    27 26 14 1
@<TRIPOS>SUBSTRUCTURE
1     ****    1
@<TRIPOS>MOLECULE
ZINC00008107
32 34 1 0 0 
SMALL
USER_CHARGES


@<TRIPOS>ATOM
      1 C1          0.5600   -8.5090   -1.0490 C.3     1     ****   -0.0600 
      2 C2         -0.2860   -7.3980   -1.6230 C.ar    1     ****   -0.0600 
      3 C3         -1.6040   -7.2840   -1.1620 C.ar    1     ****   -0.1040 
      4 C4         -2.4410   -6.2840   -1.6420 C.ar    1     ****   -0.1080 
      5 C5         -1.9950   -5.3830   -2.6100 C.ar    1     ****    0.2010 
      6 C6         -0.6790   -5.4870   -3.1020 C.ar    1     ****   -0.1570 
      7 C7          0.2010   -6.4760   -2.5860 C.ar    1     ****    0.0230 
      8 S1          1.9290   -6.6130   -3.0860 S.3     1     ****   -0.1160 
      9 C8          2.6630   -5.2060   -2.2610 C.ar    1     ****    0.0100 
     10 C9          2.4380   -4.9330   -0.9110 C.ar    1     ****   -0.2290 
     11 C10         3.0600   -3.8260   -0.3530 C.ar    1     ****    0.3880 
     12 N1          3.8780   -2.9940   -1.0310 N.ar    1     ****   -0.6600 
     13 C11         4.0870   -3.2890   -2.3320 C.ar    1     ****    0.3870 
     14 C12         3.5150   -4.3710   -2.9840 C.ar    1     ****   -0.1980 
     15 C13        -0.3140   -4.5240   -4.1860 C.2     1     ****    0.7130 
     16 O1          0.7440   -4.5610   -4.8020 O.2     1     ****   -0.6030 
     17 N2         -1.2830   -3.5840   -4.4910 N.am    1     ****   -0.5080 
     18 C14        -2.5430   -3.5430   -3.9320 C.2     1     ****    0.6680 
     19 N3         -2.9110   -4.4030   -3.0330 N.2     1     ****   -0.6840 
     20 N4         -3.3700   -2.5560   -4.3850 N.pl3   1     ****   -0.8870 
     21 H1         -1.0550   -2.9030   -5.2070 H       1     ****    0.3370 
     22 H2         -3.0770   -1.8890   -5.0880 H       1     ****    0.4050 
     23 H3         -4.3120   -2.4680   -4.0200 H       1     ****    0.4280 
     24 H4         -0.0170   -9.1410   -0.3650 H       1     ****    0.0420 
     25 H5          0.9310   -9.1600   -1.8470 H       1     ****    0.0590 
     26 H6          1.4000   -8.1000   -0.4800 H       1     ****    0.0630 
     27 H7         -1.9910   -7.9750   -0.4160 H       1     ****    0.1410 
     28 H8         -3.4570   -6.2130   -1.2590 H       1     ****    0.1550 
     29 H9          1.8020   -5.5570   -0.2930 H       1     ****    0.1470 
     30 H10         2.9110   -3.5750    0.6930 H       1     ****    0.0210 
     31 H11         4.7500   -2.6110   -2.8590 H       1     ****    0.0230 
     32 H12         3.7290   -4.5440   -4.0340 H       1     ****    0.1630 
@<TRIPOS>BOND
     1  2 1 1
     2  3 2 ar
     3  4 3 ar
     4  5 4 ar
     5  6 5 ar
     6  7 2 ar
     7  7 6 ar
     8  8 7 1
     9  9 8 1
    10 10 9 ar
    11 11 10 ar
    12 12 11 ar
    13 13 12 ar
    14 14 9 ar
    15 14 13 ar
    16 15 6 1
    17 16 15 2
    18 17 15 1
    19 18 17 1
    20 19 5 1
    21 19 18 2
    22 20 18 1
    23 21 17 1
    24 22 20 1
    25 23 20 1
    26 24 1 1
    27 25 1 1
    28 26 1 1
    29 27 3 1
    30 28 4 1
    31 29 10 1
    32 30 11 1
    33 31 13 1
    34 32 14 1
@<TRIPOS>SUBSTRUCTURE
1     ****    1
@<TRIPOS>MOLECULE
ZINC00008635
44 48 1 0 0 
SMALL
USER_CHARGES


@<TRIPOS>ATOM
      1 C1         -2.9510    4.3010    0.1800 C.3     1     ****    0.0300 
      2 N1         -1.6730    4.7840    0.6530 N.pl3   1     ****   -0.0760 
      3 C2         -1.4290    5.2100    1.9300 C.2     1     ****   -0.0470 
      4 C3         -0.1030    5.5870    2.0180 C.2     1     ****   -0.2230 
      5 C4          0.4740    5.3970    0.7190 C.ar    1     ****   -0.0700 
      6 C5         -0.5320    4.8870   -0.1120 C.ar    1     ****   -0.0500 
      7 C6         -0.3040    4.5790   -1.4640 C.ar    1     ****   -0.1380 
      8 C7          0.9720    4.8030   -1.9840 C.ar    1     ****   -0.1170 
      9 C8          1.9870    5.3200   -1.1870 C.ar    1     ****   -0.1500 
     10 C9          1.7520    5.6230    0.1590 C.ar    1     ****   -0.0910 
     11 C10         0.4810    6.0750    3.2550 C.ar    1     ****    0.3850 
     12 C11         1.7780    5.7760    3.6280 C.ar    1     ****    0.2890 
     13 N2          2.3230    6.2300    4.7790 N.ar    1     ****   -0.6410 
     14 C12         1.5350    7.0000    5.5630 C.ar    1     ****    0.3850 
     15 C13         0.2330    7.2840    5.1980 C.ar    1     ****    0.2900 
     16 N3         -0.3130    6.8310    4.0480 N.ar    1     ****   -0.6410 
     17 C14         2.1190    7.4890    6.8000 C.2     1     ****   -0.2230 
     18 C15         3.0060    6.7340    7.5430 C.2     1     ****   -0.0480 
     19 N4          3.3640    7.4530    8.6500 N.pl3   1     ****   -0.0760 
     20 C16         2.7400    8.6820    8.6450 C.ar    1     ****   -0.0500 
     21 C17         1.9540    8.7370    7.4870 C.ar    1     ****   -0.0700 
     22 C18         1.2230    9.9200    7.2320 C.ar    1     ****   -0.0910 
     23 C19         1.2840   10.9860    8.1360 C.ar    1     ****   -0.1500 
     24 C20         2.0630   10.8970    9.2840 C.ar    1     ****   -0.1170 
     25 C21         2.8060    9.7460    9.5580 C.ar    1     ****   -0.1370 
     26 C22         4.2730    6.9870    9.6720 C.3     1     ****    0.0300 
     27 H1         -3.6780    4.3250    0.9950 H       1     ****    0.0570 
     28 H2         -3.2860    4.9510   -0.6330 H       1     ****    0.0480 
     29 H3         -2.8240    3.2740   -0.1720 H       1     ****    0.0490 
     30 H4         -2.2140    5.2030    2.6760 H       1     ****    0.1790 
     31 H5         -1.0930    4.1820   -2.0940 H       1     ****    0.1320 
     32 H6          1.1720    4.5740   -3.0280 H       1     ****    0.1300 
     33 H7          2.9720    5.4940   -1.6120 H       1     ****    0.1310 
     34 H8          2.5590    6.0370    0.7570 H       1     ****    0.1380 
     35 H9          2.4310    5.1500    3.0330 H       1     ****    0.0350 
     36 H10        -0.4360    7.8720    5.8160 H       1     ****    0.0350 
     37 H11         3.4020    5.7400    7.3750 H       1     ****    0.1790 
     38 H12         0.6150   10.0200    6.3370 H       1     ****    0.1380 
     39 H13         0.7190   11.8920    7.9360 H       1     ****    0.1310 
     40 H14         2.1000   11.7350    9.9760 H       1     ****    0.1300 
     41 H15         3.4180    9.6870   10.4530 H       1     ****    0.1320 
     42 H16         4.6180    5.9790    9.4260 H       1     ****    0.0580 
     43 H17         5.1260    7.6690    9.7140 H       1     ****    0.0490 
     44 H18         3.7410    6.9710   10.6270 H       1     ****    0.0470 
@<TRIPOS>BOND
     1  2 1 1
     2  3 2 1
     3  4 3 2
     4  5 4 1
     5  6 2 1
     6  6 5 ar
     7  7 6 ar
     8  8 7 ar
     9  9 8 ar
    10 10 5 ar
    11 10 9 ar
    12 11 4 1
    13 12 11 ar
    14 13 12 ar
    15 14 13 ar
    16 15 14 ar
    17 16 11 ar
    18 16 15 ar
    19 17 14 1
    20 18 17 2
    21 19 18 1
    22 20 19 1
    23 21 17 1
    24 21 20 ar
    25 22 21 ar
    26 23 22 ar
    27 24 23 ar
    28 25 20 ar
    29 25 24 ar
    30 26 19 1
    31 27 1 1
    32 28 1 1
    33 29 1 1
    34 30 3 1
    35 31 7 1
    36 32 8 1
    37 33 9 1
    38 34 10 1
    39 35 12 1
    40 36 15 1
    41 37 18 1
    42 38 22 1
    43 39 23 1
    44 40 24 1
    45 41 25 1
    46 42 26 1
    47 43 26 1
    48 44 26 1
@<TRIPOS>SUBSTRUCTURE
1     ****    1
@<TRIPOS>MOLECULE
ZINC00008667
30 31 1 0 0 
SMALL
USER_CHARGES


@<TRIPOS>ATOM
      1 C1          6.6210   -6.7440    3.5650 C.3     1     ****   -0.0620 
      2 C2          6.6620   -5.8380    2.3280 C.3     1     ****   -0.1780 
      3 C3          5.2990   -5.2610    2.0060 C.ar    1     ****    0.0270 
      4 C4          4.1820   -6.0750    1.7720 C.ar    1     ****   -0.1350 
      5 C5          2.9350   -5.5140    1.4690 C.ar    1     ****   -0.1050 
      6 C6          2.7610   -4.1240    1.3870 C.ar    1     ****   -0.1220 
      7 C7          3.8900   -3.3240    1.6160 C.ar    1     ****    0.1240 
      8 C8          5.1370   -3.8740    1.9180 C.ar    1     ****   -0.1850 
      9 F1          3.7950   -1.9870    1.5320 F       1     ****   -0.1630 
     10 C9          1.4460   -3.5400    1.0690 C.ar    1     ****   -0.0010 
     11 C10         0.7060   -3.9820   -0.0420 C.ar    1     ****   -0.1230 
     12 C11        -0.5430   -3.4320   -0.3430 C.ar    1     ****   -0.1370 
     13 C12        -1.0770   -2.4310    0.4640 C.ar    1     ****   -0.1470 
     14 C13        -0.3630   -1.9800    1.5710 C.ar    1     ****   -0.1370 
     15 C14         0.8860   -2.5290    1.8700 C.ar    1     ****   -0.1200 
     16 C15         7.1710   -6.5920    1.0900 C.2     1     ****    0.9250 
     17 O1          7.0460   -7.8480    1.0950 O.co2   1     ****   -0.8370 
     18 H1          6.2700   -6.1870    4.4410 H       1     ****   -0.0070 
     19 H2          5.9570   -7.6070    3.4400 H       1     ****    0.0480 
     20 H3          7.6210   -7.1300    3.7910 H       1     ****    0.0270 
     21 H4          7.3560   -5.0260    2.6040 H       1     ****    0.0480 
     22 H5          4.2690   -7.1580    1.8180 H       1     ****    0.1800 
     23 H6          2.0940   -6.1860    1.3040 H       1     ****    0.1220 
     24 H7          5.9810   -3.2070    2.0790 H       1     ****    0.1420 
     25 H8          1.1020   -4.7560   -0.6960 H       1     ****    0.1400 
     26 H9         -1.0960   -3.7850   -1.2080 H       1     ****    0.1210 
     27 H10        -2.0480   -2.0040    0.2310 H       1     ****    0.1170 
     28 H11        -0.7780   -1.2000    2.2040 H       1     ****    0.1200 
     29 H12         1.4180   -2.1620    2.7460 H       1     ****    0.1400 
     30 O2          7.6740   -5.8460    0.1980 O.co2   1     ****   -0.8200 
@<TRIPOS>BOND
     1  2 1 1
     2  3 2 1
     3  4 3 ar
     4  5 4 ar
     5  6 5 ar
     6  7 6 ar
     7  8 3 ar
     8  8 7 ar
     9  9 7 1
    10 10 6 1
    11 11 10 ar
    12 12 11 ar
    13 13 12 ar
    14 14 13 ar
    15 15 10 ar
    16 15 14 ar
    17 16 2 1
    18 17 16 1
    19 18 1 1
    20 19 1 1
    21 20 1 1
    22 21 2 1
    23 22 4 1
    24 23 5 1
    25 24 8 1
    26 25 11 1
    27 26 12 1
    28 27 13 1
    29 28 14 1
    30 29 15 1
    31 30 16 2
@<TRIPOS>SUBSTRUCTURE
1     ****    1
@<TRIPOS>MOLECULE
ZINC00008896
35 38 1 0 0 
SMALL
USER_CHARGES


@<TRIPOS>ATOM
      1 C1          4.3580   -9.5170   -1.9740 C.ar    1     ****   -0.1350 
      2 C2          3.4910   -8.8320   -2.8230 C.ar    1     ****   -0.1140 
      3 C3          2.7550   -7.7460   -2.3480 C.ar    1     ****   -0.1350 
      4 C4          2.8910   -7.3480   -1.0130 C.ar    1     ****   -0.0340 
      5 C5          3.7650   -8.0350   -0.1470 C.ar    1     ****    0.1350 
      6 C6          4.4940   -9.1210   -0.6430 C.ar    1     ****   -0.0870 
      7 N1          3.9370   -7.6720    1.2090 N.2     1     ****   -0.6020 
      8 C7          3.2750   -6.6600    1.7230 C.2     1     ****    0.6410 
      9 C8          2.3600   -5.9220    0.8610 C.2     1     ****   -0.2280 
     10 N2          2.1890   -6.2730   -0.4630 N.pl3   1     ****    0.0540 
     11 C9          1.2780   -5.4190   -1.0390 C.2     1     ****   -0.1430 
     12 C10         0.8660   -4.5200   -0.0800 C.2     1     ****   -0.1800 
     13 C11         1.5470   -4.8350    1.1190 C.2     1     ****   -0.1500 
     14 N3          3.4370   -6.2980    3.0480 N.pl3   1     ****   -0.4920 
     15 N4          4.3170   -7.0090    3.8320 N.am    1     ****   -0.4200 
     16 C12         4.5280   -6.5700    5.1240 C.2     1     ****    0.5680 
     17 O1          3.9690   -5.5950    5.6240 O.2     1     ****   -0.5610 
     18 C13         5.4860   -7.3530    5.9430 C.ar    1     ****    0.2400 
     19 C14         6.3670   -8.2860    5.4250 C.ar    1     ****    0.3210 
     20 N5          7.2270   -8.9730    6.2080 N.ar    1     ****   -0.6270 
     21 C15         7.1830   -8.6960    7.5270 C.ar    1     ****    0.3000 
     22 C16         6.3140   -7.7640    8.0470 C.ar    1     ****    0.2800 
     23 N6          5.4540   -7.0760    7.2680 N.ar    1     ****   -0.5910 
     24 H1          2.9460   -5.5220    3.4800 H       1     ****    0.4120 
     25 H2          4.7260   -7.8290    3.3970 H       1     ****    0.3420 
     26 H3          4.9300  -10.3620   -2.3490 H       1     ****    0.1400 
     27 H4          3.3890   -9.1440   -3.8590 H       1     ****    0.1390 
     28 H5          2.0890   -7.2330   -3.0340 H       1     ****    0.1400 
     29 H6          5.1730   -9.6640    0.0090 H       1     ****    0.1540 
     30 H7          0.9890   -5.5070   -2.0770 H       1     ****    0.1750 
     31 H8          0.1500   -3.7230   -0.2320 H       1     ****    0.1610 
     32 H9          1.4500   -4.3210    2.0650 H       1     ****    0.1610 
     33 H10         6.4410   -8.5200    4.3710 H       1     ****    0.0510 
     34 H11         7.8730   -9.2480    8.1530 H       1     ****    0.0410 
     35 H12         6.2810   -7.5390    9.1060 H       1     ****    0.0430 
@<TRIPOS>BOND
     1  2 1 ar
     2  3 2 ar
     3  4 3 ar
     4  5 4 ar
     5  6 1 ar
     6  6 5 ar
     7  7 5 1
     8  8 7 2
     9  9 8 1
    10 10 4 1
    11 10 9 ar
    12 11 10 1
    13 12 11 2
    14 13 9 2
    15 13 12 1
    16 14 8 1
    17 15 14 1
    18 16 15 1
    19 17 16 2
    20 18 16 1
    21 19 18 ar
    22 20 19 ar
    23 21 20 ar
    24 22 21 ar
    25 23 18 ar
    26 23 22 ar
    27 24 14 1
    28 25 15 1
    29 26 1 1
    30 27 2 1
    31 28 3 1
    32 29 6 1
    33 30 11 1
    34 31 12 1
    35 32 13 1
    36 33 19 1
    37 34 21 1
    38 35 22 1
@<TRIPOS>SUBSTRUCTURE
1     ****    1
@<TRIPOS>MOLECULE
ZINC00009180
29 30 1 0 0 
SMALL
USER_CHARGES


@<TRIPOS>ATOM
      1 C1          3.6550   -6.7520   -0.8600 C.3     1     ****   -0.0970 
      2 C2          2.6900   -6.8200   -2.0480 C.3     1     ****    0.1090 
      3 C3          1.0270   -8.0140   -0.7010 C.3     1     ****    0.1080 
      4 C4          1.9450   -7.9810    0.5260 C.3     1     ****   -0.0960 
      5 C5          2.8950   -6.7770    0.4730 C.3     1     ****   -0.1640 
      6 C6          2.0230   -5.5290    0.5020 C.2     1     ****    0.5620 
      7 O1          2.1150   -4.6720    1.3760 O.2     1     ****   -0.4540 
      8 C7          1.0220   -5.4410   -0.6550 C.3     1     ****   -0.0830 
      9 C8          1.3270   -4.2090   -1.5370 C.3     1     ****    0.1480 
     10 O2          0.9840   -2.9740   -0.9220 O.3     1     ****   -0.5280 
     11 C9         -0.4270   -5.4690   -0.1160 C.3     1     ****    0.1480 
     12 O3         -0.8120   -4.2640    0.5330 O.3     1     ****   -0.5310 
     13 H1          1.4820   -2.9050   -0.0890 H       1     ****    0.4290 
     14 H2         -0.1960   -4.1110    1.2710 H       1     ****    0.4250 
     15 H3          4.2550   -5.8360   -0.9350 H       1     ****    0.0970 
     16 H4          4.3590   -7.5910   -0.9120 H       1     ****    0.1020 
     17 H5          2.8370   -6.0110   -2.7680 H       1     ****    0.1100 
     18 H6          2.7810   -7.7670   -2.5930 H       1     ****    0.1060 
     19 H7         -0.0330   -8.0730   -0.4430 H       1     ****    0.1090 
     20 H8          1.2540   -8.8630   -1.3560 H       1     ****    0.1060 
     21 H9          1.3310   -7.9370    1.4350 H       1     ****    0.0960 
     22 H10         2.5170   -8.9140    0.5800 H       1     ****    0.1020 
     23 H11         3.5810   -6.7700    1.3250 H       1     ****    0.1390 
     24 H12         2.3900   -4.1360   -1.7850 H       1     ****    0.0420 
     25 H13         0.7660   -4.2680   -2.4760 H       1     ****    0.0900 
     26 H14        -1.1330   -5.6320   -0.9370 H       1     ****    0.0960 
     27 H15        -0.5750   -6.2660    0.6180 H       1     ****    0.0410 
     28 N1          1.2630   -6.7400   -1.5090 N.4     1     ****   -0.6730 
     29 H16         0.6120   -6.7350   -2.3070 H       1     ****    0.4610 
@<TRIPOS>BOND
     1  2 1 1
     2  4 3 1
     3  5 1 1
     4  5 4 1
     5  6 5 1
     6  7 6 2
     7  8 6 1
     8  9 8 1
     9 10 9 1
    10 11 8 1
    11 12 11 1
    12 13 10 1
    13 14 12 1
    14 15 1 1
    15 16 1 1
    16 17 2 1
    17 18 2 1
    18 19 3 1
    19 20 3 1
    20 21 4 1
    21 22 4 1
    22 23 5 1
    23 24 9 1
    24 25 9 1
    25 26 11 1
    26 27 11 1
    27 28 2 1
    28 28 3 1
    29 28 8 1
    30 29 28 1
@<TRIPOS>SUBSTRUCTURE
1     ****    1
@<TRIPOS>MOLECULE
ZINC00009708
29 31 1 0 0 
SMALL
USER_CHARGES


@<TRIPOS>ATOM
      1 C1          2.7870   -6.6390   -3.2140 C.3     1     ****   -0.1180 
      2 C2          4.0800   -6.5210   -2.4520 C.3     1     ****   -0.1320 
      3 C3          2.9010   -7.2250   -1.8280 C.3     1     ****   -0.1300 
      4 C4          2.1370   -6.6690   -0.6470 C.3     1     ****    0.2630 
      5 C5          2.8910   -6.9180    0.6350 C.3     1     ****   -0.1640 
      6 C6          2.7970   -8.2540    1.3250 C.3     1     ****   -0.1230 
      7 C7          2.1510   -7.0470    1.9420 C.3     1     ****   -0.1270 
      8 N1          1.8830   -5.2420   -0.7630 N.pl3   1     ****   -0.7770 
      9 C8          0.7200   -4.5930   -0.4480 C.2     1     ****    0.7620 
     10 N2          0.5220   -3.3100   -0.4920 N.2     1     ****   -0.6920 
     11 C9         -0.8900   -3.1520   -0.1350 C.3     1     ****    0.0880 
     12 C10        -1.2960   -4.4840    0.4440 C.3     1     ****    0.0940 
     13 O1         -0.3160   -5.3840   -0.0450 O.3     1     ****   -0.4680 
     14 H1          2.6740   -4.6590   -1.0190 H       1     ****    0.4260 
     15 H2          2.7570   -7.3280   -4.0490 H       1     ****    0.0670 
     16 H3          2.2060   -5.7380   -3.3660 H       1     ****    0.0870 
     17 H4          4.9130   -7.1320   -2.7780 H       1     ****    0.0690 
     18 H5          4.3690   -5.5420   -2.0910 H       1     ****    0.0680 
     19 H6          2.9600   -8.3090   -1.7700 H       1     ****    0.0850 
     20 H7          1.1840   -7.2120   -0.6250 H       1     ****    0.0890 
     21 H8          3.8520   -6.4160    0.6580 H       1     ****    0.0840 
     22 H9          2.1470   -9.0130    0.9050 H       1     ****    0.0720 
     23 H10         3.6920   -8.6430    1.7950 H       1     ****    0.0720 
     24 H11         2.6120   -6.6210    2.8250 H       1     ****    0.0720 
     25 H12         1.0690   -6.9970    1.9360 H       1     ****    0.0840 
     26 H13        -1.0360   -2.3400    0.5840 H       1     ****    0.0630 
     27 H14        -1.4680   -2.9190   -1.0360 H       1     ****    0.0650 
     28 H15        -1.2620   -4.4870    1.5390 H       1     ****    0.0600 
     29 H16        -2.2930   -4.7910    0.1180 H       1     ****    0.0620 
@<TRIPOS>BOND
     1  2 1 1
     2  3 1 1
     3  3 2 1
     4  4 3 1
     5  5 4 1
     6  6 5 1
     7  7 5 1
     8  7 6 1
     9  8 4 1
    10  9 8 1
    11 10 9 2
    12 11 10 1
    13 12 11 1
    14 13 9 1
    15 13 12 1
    16 14 8 1
    17 15 1 1
    18 16 1 1
    19 17 2 1
    20 18 2 1
    21 19 3 1
    22 20 4 1
    23 21 5 1
    24 22 6 1
    25 23 6 1
    26 24 7 1
    27 25 7 1
    28 26 11 1
    29 27 11 1
    30 28 12 1
    31 29 12 1
@<TRIPOS>SUBSTRUCTURE
1     ****    1
@<TRIPOS>MOLECULE
ZINC00010465
30 32 1 0 0 
SMALL
USER_CHARGES


@<TRIPOS>ATOM
      1 C1          0.9060    1.2190    1.7030 C.ar    1     ****   -0.1260 
      2 C2          0.0890    1.2680    0.5690 C.ar    1     ****   -0.1070 
      3 C3          0.1360    0.1990   -0.3000 C.ar    1     ****    0.0520 
      4 C4          0.9530   -0.8830   -0.0710 C.ar    1     ****    0.0580 
      5 C5          1.7690   -0.9570    1.0400 C.ar    1     ****   -0.1080 
      6 C6          1.7500    0.1120    1.9500 C.ar    1     ****   -0.0750 
      7 C7          2.6350    0.0900    3.1750 C.3     1     ****    0.0440 
      8 C8          3.8940    0.9020    3.0280 C.ar    1     ****   -0.4410 
      9 C9          3.9290    2.2170    3.4650 C.ar    1     ****    0.4980 
     10 N1          4.9950    3.0330    3.3470 N.ar    1     ****   -0.7860 
     11 C10         6.0820    2.5120    2.7520 C.ar    1     ****    0.9200 
     12 N2          6.1480    1.2460    2.2900 N.ar    1     ****   -0.8300 
     13 C11         5.0670    0.4420    2.4400 C.ar    1     ****    0.7310 
     14 N3          5.1610   -0.8450    1.9230 N.pl3   1     ****   -0.9510 
     15 N4          7.1940    3.3190    2.6040 N.pl3   1     ****   -0.9600 
     16 O1          0.8490   -1.8250   -1.0470 O.3     1     ****   -0.3370 
     17 C12        -0.1250   -1.2120   -1.9170 C.3     1     ****    0.3220 
     18 O2         -0.5830    0.0720   -1.4480 O.3     1     ****   -0.3340 
     19 H1          6.0410   -1.0850    1.4840 H       1     ****    0.4290 
     20 H2          4.6530   -1.5960    2.3700 H       1     ****    0.4210 
     21 H3          7.1670    4.2700    2.9410 H       1     ****    0.4430 
     22 H4          8.0210    2.9490    2.1580 H       1     ****    0.4410 
     23 H5          0.8830    2.0530    2.4020 H       1     ****    0.1370 
     24 H6         -0.5560    2.1180    0.3840 H       1     ****    0.1550 
     25 H7          2.4040   -1.8230    1.1970 H       1     ****    0.1460 
     26 H8          2.0550    0.4570    4.0330 H       1     ****    0.0550 
     27 H9          2.8810   -0.9440    3.4480 H       1     ****    0.0410 
     28 H10         3.0650    2.6760    3.9380 H       1     ****    0.0190 
     29 H11         0.3230   -1.0850   -2.9100 H       1     ****    0.0720 
     30 H12        -0.9880   -1.8820   -2.0040 H       1     ****    0.0710 
@<TRIPOS>BOND
     1  2 1 ar
     2  3 2 ar
     3  4 3 ar
     4  5 4 ar
     5  6 1 ar
     6  6 5 ar
     7  7 6 1
     8  8 7 1
     9  9 8 ar
    10 10 9 ar
    11 11 10 ar
    12 12 11 ar
    13 13 8 ar
    14 13 12 ar
    15 14 13 1
    16 15 11 1
    17 16 4 1
    18 17 16 1
    19 18 3 1
    20 18 17 1
    21 19 14 1
    22 20 14 1
    23 21 15 1
    24 22 15 1
    25 23 1 1
    26 24 2 1
    27 25 5 1
    28 26 7 1
    29 27 7 1
    30 28 9 1
    31 29 17 1
    32 30 17 1
@<TRIPOS>SUBSTRUCTURE
1     ****    1
@<TRIPOS>MOLECULE
ZINC00010554
30 32 1 0 0 
SMALL
USER_CHARGES


@<TRIPOS>ATOM
      1 C1          4.2090    4.3150    0.4130 C.3     1     ****   -0.0900 
      2 C2          4.4680    5.8160    0.1540 C.3     1     ****   -0.0810 
      3 C3          3.4820    6.1800   -0.9060 C.2     1     ****   -0.1330 
      4 C4          2.8260    5.1150   -1.3770 C.2     1     ****   -0.1950 
      5 C5          3.2550    3.8530   -0.7100 C.3     1     ****    0.1020 
      6 N1          2.1100    3.1290   -0.1790 N.pl3   1     ****    0.0560 
      7 C6          1.1250    3.5380    0.6750 C.2     1     ****    0.1410 
      8 C7          0.3330    2.4270    0.8120 C.2     1     ****    0.1050 
      9 C8         -0.8260    2.4860    1.6560 C.2     1     ****    0.6630 
     10 N2         -0.9580    3.7520    2.2360 N.am    1     ****   -0.5140 
     11 C9         -0.0800    4.8340    2.0280 C.2     1     ****    0.7060 
     12 N3          0.9740    4.7540    1.2480 N.2     1     ****   -0.6730 
     13 N4         -0.3930    5.9860    2.6930 N.pl3   1     ****   -0.9040 
     14 O1         -1.5910    1.5480    1.8400 O.2     1     ****   -0.5890 
     15 N5          0.8200    1.3960    0.0760 N.2     1     ****   -0.2620 
     16 N6          1.9200    1.8330   -0.5340 N.2     1     ****   -0.1660 
     17 C10         4.2250    6.6400    1.4210 C.3     1     ****    0.1340 
     18 O2          4.6360    7.9890    1.2230 O.3     1     ****   -0.5980 
     19 H1         -1.2050    6.0560    3.2950 H       1     ****    0.4220 
     20 H2          0.1890    6.8100    2.5940 H       1     ****    0.4450 
     21 H3         -1.7500    3.8950    2.8530 H       1     ****    0.3360 
     22 H4          5.5820    7.9770    0.9970 H       1     ****    0.3960 
     23 H5          3.8110    4.1310    1.4180 H       1     ****    0.0710 
     24 H6          5.1540    3.7590    0.3530 H       1     ****    0.0580 
     25 H7          5.5090    5.9420   -0.1820 H       1     ****    0.0590 
     26 H8          3.3380    7.1870   -1.2730 H       1     ****    0.1530 
     27 H9          2.0890    5.1620   -2.1660 H       1     ****    0.1540 
     28 H10         3.8080    3.1810   -1.3850 H       1     ****    0.0960 
     29 H11         3.1700    6.6480    1.7120 H       1     ****    0.0840 
     30 H12         4.8010    6.2380    2.2620 H       1     ****    0.0270 
@<TRIPOS>BOND
     1  2 1 1
     2  3 2 1
     3  4 3 2
     4  5 1 1
     5  5 4 1
     6  6 5 1
     7  7 6 1
     8  8 7 ar
     9  9 8 1
    10 10 9 1
    11 11 10 1
    12 12 7 1
    13 12 11 2
    14 13 11 1
    15 14 9 2
    16 15 8 1
    17 16 6 1
    18 16 15 2
    19 17 2 1
    20 18 17 1
    21 19 13 1
    22 20 13 1
    23 21 10 1
    24 22 18 1
    25 23 1 1
    26 24 1 1
    27 25 2 1
    28 26 3 1
    29 27 4 1
    30 28 5 1
    31 29 17 1
    32 30 17 1
@<TRIPOS>SUBSTRUCTURE
1     ****    1
@<TRIPOS>MOLECULE
ZINC00010571
26 26 1 0 0 
SMALL
USER_CHARGES


@<TRIPOS>ATOM
      1 C1          4.7920  -10.0420   -1.3940 C.3     1     ****   -0.0810 
      2 C2          5.8640   -8.9860   -1.1370 C.3     1     ****   -0.0760 
      3 C3          5.2690   -7.7170   -0.5340 C.3     1     ****   -0.0800 
      4 C4          4.1340   -7.1580   -1.3990 C.3     1     ****    0.0910 
      5 C5          3.0600   -8.2220   -1.6560 C.3     1     ****   -0.1040 
      6 C6          3.6580   -9.4930   -2.2550 C.3     1     ****   -0.0740 
      7 N1          3.5450   -5.9830   -0.7680 N.am    1     ****   -0.5330 
      8 C7          2.9640   -4.9480   -1.4890 C.2     1     ****    0.6870 
      9 O1          2.9080   -4.9040   -2.7170 O.2     1     ****   -0.6320 
     10 N2          2.4560   -3.9650   -0.6460 N.am    1     ****   -0.3880 
     11 N3          1.8360   -2.8470   -1.1820 N.3     1     ****   -0.6520 
     12 H1          3.4790   -5.9630    0.2440 H       1     ****    0.2970 
     13 H2          2.5290   -4.0370    0.3630 H       1     ****    0.2970 
     14 H3          2.5040   -2.4010   -1.8130 H       1     ****    0.3470 
     15 H4          1.0740   -3.1770   -1.7760 H       1     ****    0.3620 
     16 H5          4.3870  -10.3910   -0.4360 H       1     ****    0.0400 
     17 H6          5.2420  -10.9110   -1.8870 H       1     ****    0.0430 
     18 H7          6.6260   -9.3920   -0.4620 H       1     ****    0.0430 
     19 H8          6.3690   -8.7410   -2.0790 H       1     ****    0.0460 
     20 H9          4.8970   -7.9340    0.4760 H       1     ****    0.0390 
     21 H10         6.0560   -6.9620   -0.4180 H       1     ****    0.0530 
     22 H11         4.5500   -6.8430   -2.3650 H       1     ****    0.0910 
     23 H12         2.5480   -8.4690   -0.7170 H       1     ****    0.0380 
     24 H13         2.2920   -7.8280   -2.3320 H       1     ****    0.0560 
     25 H14         4.0360   -9.2780   -3.2620 H       1     ****    0.0470 
     26 H15         2.8760  -10.2530   -2.3620 H       1     ****    0.0430 
@<TRIPOS>BOND
     1  2 1 1
     2  3 2 1
     3  4 3 1
     4  5 4 1
     5  6 1 1
     6  6 5 1
     7  7 4 1
     8  8 7 1
     9  9 8 2
    10 10 8 1
    11 11 10 1
    12 12 7 1
    13 13 10 1
    14 14 11 1
    15 15 11 1
    16 16 1 1
    17 17 1 1
    18 18 2 1
    19 19 2 1
    20 20 3 1
    21 21 3 1
    22 22 4 1
    23 23 5 1
    24 24 5 1
    25 25 6 1
    26 26 6 1
@<TRIPOS>SUBSTRUCTURE
1     ****    1
@<TRIPOS>MOLECULE
ZINC00010615
30 32 1 0 0 
SMALL
USER_CHARGES


@<TRIPOS>ATOM
      1 C1          2.0290   -4.5100   -0.0520 C.ar    1     ****   -0.0890 
      2 C2          3.1980   -4.5620    0.7110 C.ar    1     ****   -0.1600 
      3 C3          4.1900   -5.4820    0.3880 C.ar    1     ****    0.1320 
      4 C4          4.0310   -6.3510   -0.6890 C.ar    1     ****   -0.2140 
      5 C5          2.8620   -6.2970   -1.4510 C.ar    1     ****   -0.0540 
      6 C6          1.8480   -5.3780   -1.1400 C.ar    1     ****   -0.0800 
      7 C7          0.6200   -5.3260   -1.9510 C.2     1     ****   -0.1930 
      8 C8         -0.5860   -5.4660   -1.3800 C.2     1     ****    0.0830 
      9 O1         -1.8040   -5.4530   -2.0140 O.3     1     ****   -0.2390 
     10 C9         -1.8130   -5.3000   -3.3760 C.ar    1     ****    0.1020 
     11 C10        -0.6450   -5.1460   -4.1230 C.ar    1     ****   -0.2180 
     12 C11         0.6560   -5.1430   -3.4290 C.2     1     ****    0.5980 
     13 O2          1.7010   -4.9870   -4.0460 O.2     1     ****   -0.5340 
     14 C12        -0.7080   -4.9920   -5.5130 C.ar    1     ****   -0.0440 
     15 C13        -1.9470   -4.9940   -6.1560 C.ar    1     ****   -0.1650 
     16 C14        -3.1110   -5.1480   -5.4080 C.ar    1     ****    0.1610 
     17 C15        -3.0480   -5.3000   -4.0250 C.ar    1     ****    0.0110 
     18 O3         -4.2160   -5.4490   -3.3290 O.3     1     ****   -0.5090 
     19 O4         -4.3100   -5.1460   -6.0640 O.3     1     ****   -0.4840 
     20 O5          5.3200   -5.5080    1.1540 O.3     1     ****   -0.4970 
     21 H1         -3.9910   -5.5420   -2.3870 H       1     ****    0.4440 
     22 H2         -5.0060   -5.2640   -5.3920 H       1     ****    0.4440 
     23 H3          5.9150   -6.1940    0.8060 H       1     ****    0.4210 
     24 H4          1.2670   -3.7790    0.2090 H       1     ****    0.1330 
     25 H5          3.3260   -3.8840    1.5500 H       1     ****    0.1520 
     26 H6          4.8030   -7.0710   -0.9450 H       1     ****    0.1380 
     27 H7          2.7500   -6.9840   -2.2870 H       1     ****    0.1480 
     28 H8         -0.7390   -5.6170   -0.3180 H       1     ****    0.1850 
     29 H9          0.1950   -4.8710   -6.1050 H       1     ****    0.1670 
     30 H10        -1.9970   -4.8750   -7.2350 H       1     ****    0.1630 
@<TRIPOS>BOND
     1  2 1 ar
     2  3 2 ar
     3  4 3 ar
     4  5 4 ar
     5  6 1 ar
     6  6 5 ar
     7  7 6 1
     8  8 7 2
     9  9 8 1
    10 10 9 1
    11 11 10 ar
    12 12 7 1
    13 12 11 1
    14 13 12 2
    15 14 11 ar
    16 15 14 ar
    17 16 15 ar
    18 17 10 ar
    19 17 16 ar
    20 18 17 1
    21 19 16 1
    22 20 3 1
    23 21 18 1
    24 22 19 1
    25 23 20 1
    26 24 1 1
    27 25 2 1
    28 26 4 1
    29 27 5 1
    30 28 8 1
    31 29 14 1
    32 30 15 1
@<TRIPOS>SUBSTRUCTURE
1     ****    1
@<TRIPOS>MOLECULE
ZINC00011032
47 50 1 0 0 
SMALL
USER_CHARGES


@<TRIPOS>ATOM
      1 C1          3.1950  -12.1630   -1.2370 C.3     1     ****    0.1030 
      2 O1          3.8790  -10.9200   -1.3390 O.3     1     ****   -0.2850 
      3 C2          3.8450  -10.0880   -0.2470 C.ar    1     ****    0.1480 
      4 C3          3.2060  -10.3860    0.9610 C.ar    1     ****   -0.1800 
      5 C4          3.2140   -9.4730    2.0280 C.ar    1     ****   -0.0820 
      6 C5          3.8840   -8.2500    1.8960 C.ar    1     ****   -0.1430 
      7 C6          4.5370   -7.9620    0.6830 C.ar    1     ****   -0.1750 
      8 C7          4.5190   -8.8640   -0.3870 C.ar    1     ****    0.1330 
      9 O2          5.1260   -8.6490   -1.6000 O.3     1     ****   -0.2850 
     10 C8          5.8010   -7.4100   -1.7850 C.3     1     ****    0.1040 
     11 C9          3.9460   -7.2280    3.0230 C.3     1     ****    0.2010 
     12 C10         3.1190   -5.9570    2.6950 C.3     1     ****   -0.0480 
     13 C11         3.6880   -4.6790    3.2820 C.ar    1     ****   -0.1040 
     14 C12         3.5880   -3.5090    2.5030 C.ar    1     ****   -0.1160 
     15 C13         4.0950   -2.2910    2.9530 C.ar    1     ****   -0.1050 
     16 C14         4.7100   -2.2190    4.1960 C.ar    1     ****   -0.1050 
     17 C15         4.8010   -3.3600    4.9900 C.ar    1     ****   -0.1130 
     18 C16         4.2760   -4.5960    4.5610 C.ar    1     ****   -0.1060 
     19 C17         4.4180   -5.7700    5.5050 C.3     1     ****   -0.0520 
     20 C18         3.2770   -6.7760    5.4460 C.3     1     ****    0.1160 
     21 C19         2.2360   -8.6490    4.1810 C.3     1     ****    0.1140 
     22 C20         2.5600   -9.8590    3.3240 C.3     1     ****   -0.0560 
     23 H1          3.3130  -12.6880   -2.1900 H       1     ****    0.0920 
     24 H2          3.6340  -12.7920   -0.4550 H       1     ****    0.0400 
     25 H3          2.1230  -12.0120   -1.0710 H       1     ****    0.0400 
     26 H4          2.6910  -11.3330    1.1030 H       1     ****    0.1570 
     27 H5          5.0630   -7.0130    0.5990 H       1     ****    0.1530 
     28 H6          6.2100   -7.4020   -2.8000 H       1     ****    0.0920 
     29 H7          5.1090   -6.5660   -1.6990 H       1     ****    0.0360 
     30 H8          6.6400   -7.3110   -1.0880 H       1     ****    0.0380 
     31 H9          5.0080   -6.9310    3.1250 H       1     ****    0.1090 
     32 H10         3.0900   -5.8280    1.6050 H       1     ****    0.1000 
     33 H11         2.0690   -6.0470    2.9970 H       1     ****    0.0680 
     34 H12         3.1160   -3.5410    1.5230 H       1     ****    0.1430 
     35 H13         4.0140   -1.4040    2.3320 H       1     ****    0.1550 
     36 H14         5.1140   -1.2750    4.5500 H       1     ****    0.1560 
     37 H15         5.2830   -3.2780    5.9620 H       1     ****    0.1440 
     38 H16         5.3890   -6.2540    5.3450 H       1     ****    0.0690 
     39 H17         4.4320   -5.3770    6.5300 H       1     ****    0.0960 
     40 H18         3.2410   -7.3450    6.3830 H       1     ****    0.0930 
     41 H19         2.2990   -6.3040    5.2980 H       1     ****    0.1110 
     42 H20         1.9070   -8.9710    5.1750 H       1     ****    0.0960 
     43 H21         1.4580   -8.0200    3.7360 H       1     ****    0.1060 
     44 H22         1.6310  -10.4070    3.1280 H       1     ****    0.1020 
     45 H23         3.2340  -10.5320    3.8670 H       1     ****    0.0770 
     46 N1          3.4860   -7.8230    4.3600 N.4     1     ****   -0.6830 
     47 H24         4.2400   -8.4230    4.7410 H       1     ****    0.4450 
@<TRIPOS>BOND
     1  2 1 1
     2  3 2 1
     3  4 3 ar
     4  5 4 ar
     5  6 5 ar
     6  7 6 ar
     7  8 3 ar
     8  8 7 ar
     9  9 8 1
    10 10 9 1
    11 11 6 1
    12 12 11 1
    13 13 12 1
    14 14 13 ar
    15 15 14 ar
    16 16 15 ar
    17 17 16 ar
    18 18 13 ar
    19 18 17 ar
    20 19 18 1
    21 20 19 1
    22 22 5 1
    23 22 21 1
    24 23 1 1
    25 24 1 1
    26 25 1 1
    27 26 4 1
    28 27 7 1
    29 28 10 1
    30 29 10 1
    31 30 10 1
    32 31 11 1
    33 32 12 1
    34 33 12 1
    35 34 14 1
    36 35 15 1
    37 36 16 1
    38 37 17 1
    39 38 19 1
    40 39 19 1
    41 40 20 1
    42 41 20 1
    43 42 21 1
    44 43 21 1
    45 44 22 1
    46 45 22 1
    47 46 11 1
    48 46 20 1
    49 46 21 1
    50 47 46 1
@<TRIPOS>SUBSTRUCTURE
1     ****    1
@<TRIPOS>MOLECULE
ZINC00012346
26 27 1 0 0 
SMALL
USER_CHARGES


@<TRIPOS>ATOM
      1 C1          4.8410   -5.8610   -0.4570 C.2     1     ****   -0.4280 
      2 C2          3.7130   -5.1910   -0.2300 C.2     1     ****    0.0810 
      3 N1          2.4900   -5.8240   -0.1610 N.am    1     ****   -0.3920 
      4 C3          2.3920   -7.2130   -0.3780 C.2     1     ****    0.8460 
      5 O1          1.3010   -7.7870   -0.3830 O.2     1     ****   -0.6160 
      6 N2          3.5540   -7.9280   -0.5910 N.2     1     ****   -0.7230 
      7 C4          4.7120   -7.3280   -0.6330 C.2     1     ****    0.7600 
      8 N3          5.8510   -8.0640   -0.8470 N.pl3   1     ****   -0.9170 
      9 C5          1.2650   -5.0400    0.0590 C.3     1     ****    0.2990 
     10 C6          0.7580   -4.4190   -1.2480 C.3     1     ****   -0.0510 
     11 S1         -0.3810   -3.1510   -0.6690 S.3     1     ****   -0.3320 
     12 C7          0.3890   -3.0980    0.9600 C.3     1     ****    0.2070 
     13 O2          1.5170   -3.9780    0.9840 O.3     1     ****   -0.4200 
     14 C8          0.8780   -1.6890    1.3120 C.3     1     ****    0.1300 
     15 O3         -0.2200   -0.8100    1.5120 O.3     1     ****   -0.5900 
     16 H1          5.7930   -9.0690   -0.9720 H       1     ****    0.4460 
     17 H2          6.7710   -7.6410   -0.8870 H       1     ****    0.4330 
     18 H3          0.1490    0.0640    1.7280 H       1     ****    0.4070 
     19 H4          5.8100   -5.3850   -0.5160 H       1     ****    0.1560 
     20 H5          3.7280   -4.1150   -0.0970 H       1     ****    0.1670 
     21 H6          0.4810   -5.7090    0.4530 H       1     ****    0.1210 
     22 H7          1.5610   -3.9300   -1.8070 H       1     ****    0.0860 
     23 H8          0.2720   -5.1520   -1.8970 H       1     ****    0.1030 
     24 H9         -0.3180   -3.3850    1.7580 H       1     ****    0.0970 
     25 H10         1.4650   -1.7200    2.2370 H       1     ****    0.0800 
     26 H11         1.5340   -1.2850    0.5320 H       1     ****    0.0530 
@<TRIPOS>BOND
     1  2 1 2
     2  3 2 1
     3  4 3 1
     4  5 4 2
     5  6 4 1
     6  7 1 1
     7  7 6 2
     8  8 7 1
     9  9 3 1
    10 10 9 1
    11 11 10 1
    12 12 11 1
    13 13 9 1
    14 13 12 1
    15 14 12 1
    16 15 14 1
    17 16 8 1
    18 17 8 1
    19 18 15 1
    20 19 1 1
    21 20 2 1
    22 21 9 1
    23 22 10 1
    24 23 10 1
    25 24 12 1
    26 25 14 1
    27 26 14 1
@<TRIPOS>SUBSTRUCTURE
1     ****    1
@<TRIPOS>MOLECULE
ZINC00013560
30 31 1 0 0 
SMALL
USER_CHARGES


@<TRIPOS>ATOM
      1 C1          2.5200   -0.3700    1.4970 C.3     1     ****   -0.0620 
      2 C2          2.2250   -1.7670    1.0410 C.ar    1     ****   -0.0360 
      3 C3          1.9890   -2.0360   -0.3120 C.ar    1     ****   -0.1510 
      4 C4          1.6830   -3.3320   -0.7350 C.ar    1     ****   -0.0410 
      5 C5          1.6040   -4.3750    0.1940 C.ar    1     ****   -0.1330 
      6 C6          1.8170   -4.1050    1.5500 C.ar    1     ****   -0.0550 
      7 C7          2.1230   -2.8090    1.9700 C.ar    1     ****   -0.1520 
      8 S1          1.2010   -6.0630   -0.3160 S.o     1     ****    0.3760 
      9 O1          0.6150   -5.9430   -1.6920 O.3     1     ****   -0.5160 
     10 C8          2.9320   -6.5270   -0.5590 C.ar    1     ****   -0.1320 
     11 C9          3.6480   -7.0730    0.5110 C.ar    1     ****   -0.0550 
     12 C10         4.9830   -7.4460    0.3480 C.ar    1     ****   -0.1520 
     13 C11         5.6230   -7.2750   -0.8860 C.ar    1     ****   -0.0360 
     14 C12         4.8960   -6.7490   -1.9610 C.ar    1     ****   -0.1510 
     15 C13         3.5600   -6.3750   -1.7990 C.ar    1     ****   -0.0410 
     16 C14         7.0460   -7.7070   -1.0700 C.3     1     ****   -0.0620 
     17 H1          3.0570    0.1890    0.7230 H       1     ****    0.0480 
     18 H2          1.5870    0.1540    1.7290 H       1     ****    0.0520 
     19 H3          3.1540   -0.3760    2.3900 H       1     ****    0.0460 
     20 H4          2.0420   -1.2380   -1.0480 H       1     ****    0.1360 
     21 H5          1.5100   -3.5110   -1.7930 H       1     ****    0.1610 
     22 H6          1.7450   -4.8960    2.2920 H       1     ****    0.1240 
     23 H7          2.2800   -2.6180    3.0290 H       1     ****    0.1340 
     24 H8          3.1760   -7.2160    1.4810 H       1     ****    0.1250 
     25 H9          5.5220   -7.8730    1.1900 H       1     ****    0.1340 
     26 H10         5.3670   -6.6270   -2.9330 H       1     ****    0.1360 
     27 H11         3.0240   -5.9650   -2.6520 H       1     ****    0.1600 
     28 H12         7.6110   -7.6000   -0.1370 H       1     ****    0.0450 
     29 H13         7.0820   -8.7530   -1.3880 H       1     ****    0.0520 
     30 H14         7.5470   -7.0900   -1.8240 H       1     ****    0.0490 
@<TRIPOS>BOND
     1  2 1 1
     2  3 2 ar
     3  4 3 ar
     4  5 4 ar
     5  6 5 ar
     6  7 2 ar
     7  7 6 ar
     8  8 5 1
     9  9 8 1
    10 10 8 1
    11 11 10 ar
    12 12 11 ar
    13 13 12 ar
    14 14 13 ar
    15 15 10 ar
    16 15 14 ar
    17 16 13 1
    18 17 1 1
    19 18 1 1
    20 19 1 1
    21 20 3 1
    22 21 4 1
    23 22 6 1
    24 23 7 1
    25 24 11 1
    26 25 12 1
    27 26 14 1
    28 27 15 1
    29 28 16 1
    30 29 16 1
    31 30 16 1
@<TRIPOS>SUBSTRUCTURE
1     ****    1
@<TRIPOS>MOLECULE
ZINC00013562
30 31 1 0 0 
SMALL
USER_CHARGES


@<TRIPOS>ATOM
      1 C1          1.9720    0.2400   -0.5180 C.ar    1     ****   -0.1270 
      2 C2          2.9090   -0.1270    0.4470 C.ar    1     ****   -0.1250 
      3 C3          2.9780   -1.4500    0.8870 C.ar    1     ****   -0.1180 
      4 C4          2.1060   -2.4180    0.3680 C.ar    1     ****   -0.0740 
      5 C5          1.1730   -2.0390   -0.6070 C.ar    1     ****   -0.1280 
      6 C6          1.1050   -0.7150   -1.0450 C.ar    1     ****   -0.1290 
      7 C7          2.1910   -3.8470    0.8280 C.3     1     ****   -0.0400 
      8 S1          3.3310   -4.8160   -0.2130 S.o     1     ****    0.2670 
      9 O1          4.7270   -4.3580    0.0960 O.3     1     ****   -0.4970 
     10 C8          3.0650   -6.3950    0.6570 C.3     1     ****   -0.0410 
     11 C9          3.8510   -7.5110    0.0280 C.ar    1     ****   -0.0730 
     12 C10         3.3050   -8.2610   -1.0230 C.ar    1     ****   -0.1290 
     13 C11         4.0420   -9.2860   -1.6180 C.ar    1     ****   -0.1300 
     14 C12         5.3330   -9.5670   -1.1730 C.ar    1     ****   -0.1280 
     15 C13         5.8880   -8.8230   -0.1350 C.ar    1     ****   -0.1250 
     16 C14         5.1530   -7.7980    0.4620 C.ar    1     ****   -0.1180 
     17 H1          1.9200    1.2700   -0.8600 H       1     ****    0.1320 
     18 H2          3.5880    0.6160    0.8550 H       1     ****    0.1350 
     19 H3          3.7190   -1.7220    1.6340 H       1     ****    0.1520 
     20 H4          0.4920   -2.7720   -1.0320 H       1     ****    0.1270 
     21 H5          0.3780   -0.4300   -1.8000 H       1     ****    0.1320 
     22 H6          2.5350   -3.8970    1.8670 H       1     ****    0.0970 
     23 H7          1.2010   -4.3140    0.7850 H       1     ****    0.0810 
     24 H8          3.3480   -6.2700    1.7080 H       1     ****    0.0970 
     25 H9          1.9950   -6.6290    0.6300 H       1     ****    0.0820 
     26 H10         2.3010   -8.0520   -1.3850 H       1     ****    0.1270 
     27 H11         3.6100   -9.8640   -2.4300 H       1     ****    0.1320 
     28 H12         5.9060  -10.3640   -1.6380 H       1     ****    0.1320 
     29 H13         6.8960   -9.0380    0.2100 H       1     ****    0.1350 
     30 H14         5.6030   -7.2210    1.2670 H       1     ****    0.1520 
@<TRIPOS>BOND
     1  2 1 ar
     2  3 2 ar
     3  4 3 ar
     4  5 4 ar
     5  6 1 ar
     6  6 5 ar
     7  7 4 1
     8  8 7 1
     9  9 8 1
    10 10 8 1
    11 11 10 1
    12 12 11 ar
    13 13 12 ar
    14 14 13 ar
    15 15 14 ar
    16 16 11 ar
    17 16 15 ar
    18 17 1 1
    19 18 2 1
    20 19 3 1
    21 20 5 1
    22 21 6 1
    23 22 7 1
    24 23 7 1
    25 24 10 1
    26 25 10 1
    27 26 12 1
    28 27 13 1
    29 28 14 1
    30 29 15 1
    31 30 16 1
@<TRIPOS>SUBSTRUCTURE
1     ****    1
@<TRIPOS>MOLECULE
ZINC00013658
25 26 1 0 0 
SMALL
USER_CHARGES


@<TRIPOS>ATOM
      1 C1          4.5670   -7.9090   -0.0430 C.ar    1     ****   -0.2480 
      2 C2          3.3260   -7.2710   -0.1060 C.ar    1     ****    0.0310 
      3 C3          3.2240   -6.0430   -0.7550 C.ar    1     ****   -0.4580 
      4 C4          4.3380   -5.4530   -1.3490 C.ar    1     ****    0.0440 
      5 C5          5.5740   -6.1000   -1.2800 C.ar    1     ****   -0.2480 
      6 C6          5.7040   -7.3280   -0.6190 C.ar    1     ****    0.2580 
      7 N1          6.9290   -7.9770   -0.5710 N.pl3   1     ****   -0.8770 
      8 S1          1.6710   -5.2180   -0.8470 S.o2    1     ****    1.5000 
      9 O1          1.4130   -4.9320   -2.2440 O.3     1     ****   -0.6680 
     10 O2          0.7070   -5.9190   -0.0230 O.3     1     ****   -0.6690 
     11 C7          1.8730   -3.6480   -0.0770 C.2     1     ****   -0.5750 
     12 C8          1.7200   -2.3530   -0.5200 C.2     1     ****    0.5010 
     13 N2          1.9830   -1.3670    0.4080 N.2     1     ****   -0.7160 
     14 C9          2.3320   -1.9090    1.5560 C.2     1     ****    0.6350 
     15 S2          2.3580   -3.6340    1.5620 S.2     1     ****    0.0400 
     16 N3          2.6540   -1.2220    2.6680 N.pl3   1     ****   -0.9080 
     17 H1          7.7560   -7.5370   -0.9520 H       1     ****    0.4330 
     18 H2          7.0290   -8.8430   -0.0590 H       1     ****    0.4330 
     19 H3          2.6440   -0.2080    2.6850 H       1     ****    0.4280 
     20 H4          2.9160   -1.6860    3.5300 H       1     ****    0.4150 
     21 H5          4.6400   -8.8690    0.4630 H       1     ****    0.1370 
     22 H6          2.4640   -7.7460    0.3530 H       1     ****    0.1590 
     23 H7          4.2650   -4.5010   -1.8680 H       1     ****    0.1430 
     24 H8          6.4390   -5.6360   -1.7480 H       1     ****    0.1370 
     25 H9          1.4170   -2.0680   -1.5190 H       1     ****    0.0730 
@<TRIPOS>BOND
     1  2 1 ar
     2  3 2 ar
     3  4 3 ar
     4  5 4 ar
     5  6 1 ar
     6  6 5 ar
     7  7 6 1
     8  8 3 1
     9  9 8 1
    10 10 8 1
    11 11 8 1
    12 12 11 2
    13 13 12 1
    14 14 13 2
    15 15 11 1
    16 15 14 1
    17 16 14 1
    18 17 7 1
    19 18 7 1
    20 19 16 1
    21 20 16 1
    22 21 1 1
    23 22 2 1
    24 23 4 1
    25 24 5 1
    26 25 12 1
@<TRIPOS>SUBSTRUCTURE
1     ****    1
@<TRIPOS>MOLECULE
ZINC00014106
27 28 1 0 0 
SMALL
USER_CHARGES


@<TRIPOS>ATOM
      1 C1          7.2180   -5.0800    1.3220 C.3     1     ****   -0.1200 
      2 C2          6.1200   -4.1110    0.9120 C.3     1     ****    0.1030 
      3 N1          4.7980   -4.7380    0.9640 N.am    1     ****   -0.4140 
      4 C3          4.0680   -4.7480    2.1430 C.2     1     ****    0.4870 
      5 C4          2.8340   -5.3310    2.2200 C.2     1     ****   -0.3540 
      6 C5          2.1800   -5.9800    1.1340 C.2     1     ****    0.7610 
      7 O1          1.0600   -6.4750    1.2240 O.2     1     ****   -0.6250 
      8 N2          2.9760   -5.9740   -0.0400 N.am    1     ****   -0.4840 
      9 C6          4.2700   -5.3690   -0.1880 C.2     1     ****    0.8130 
     10 O2          4.8870   -5.3960   -1.2580 O.2     1     ****   -0.6370 
     11 C7          2.4100   -6.6270   -1.2240 C.3     1     ****    0.0950 
     12 C8          1.6070   -5.6470   -2.0670 C.3     1     ****   -0.1150 
     13 N3          2.4290   -5.1410    3.5100 N.pl3   1     ****   -0.2680 
     14 C9          3.4340   -4.4590    4.1460 C.2     1     ****    0.4470 
     15 N4          4.4450   -4.2050    3.3400 N.2     1     ****   -0.6860 
     16 H1          1.5560   -5.4460    3.9200 H       1     ****    0.3270 
     17 H2          8.1960   -4.5930    1.2620 H       1     ****    0.0490 
     18 H3          7.0720   -5.4300    2.3490 H       1     ****    0.0500 
     19 H4          7.2310   -5.9580    0.6690 H       1     ****    0.0480 
     20 H5          6.1260   -3.2260    1.5580 H       1     ****    0.0720 
     21 H6          6.3110   -3.7630   -0.1100 H       1     ****    0.0830 
     22 H7          3.2160   -7.0550   -1.8290 H       1     ****    0.0760 
     23 H8          1.7630   -7.4540   -0.9120 H       1     ****    0.0760 
     24 H9          1.1910   -6.1520   -2.9450 H       1     ****    0.0470 
     25 H10         0.7770   -5.2210   -1.4930 H       1     ****    0.0470 
     26 H11         2.2330   -4.8190   -2.4130 H       1     ****    0.0500 
     27 H12         3.3670   -4.1800    5.1880 H       1     ****    0.0720 
@<TRIPOS>BOND
     1  2 1 1
     2  3 2 1
     3  4 3 1
     4  5 4 ar
     5  6 5 1
     6  7 6 2
     7  8 6 1
     8  9 3 1
     9  9 8 1
    10 10 9 2
    11 11 8 1
    12 12 11 1
    13 13 5 1
    14 14 13 1
    15 15 4 1
    16 15 14 2
    17 16 13 1
    18 17 1 1
    19 18 1 1
    20 19 1 1
    21 20 2 1
    22 21 2 1
    23 22 11 1
    24 23 11 1
    25 24 12 1
    26 25 12 1
    27 26 12 1
    28 27 14 1
@<TRIPOS>SUBSTRUCTURE
1     ****    1
@<TRIPOS>MOLECULE
ZINC00015629
26 27 1 0 0 
SMALL
USER_CHARGES


@<TRIPOS>ATOM
      1 C1          4.7520   -6.9840   -0.6830 C.2     1     ****   -0.4160 
      2 C2          4.1920   -5.7940   -0.8930 C.2     1     ****    0.0680 
      3 N1          2.9690   -5.4570   -0.3550 N.am    1     ****   -0.3980 
      4 C3          2.2560   -6.3820    0.4350 C.2     1     ****    0.8430 
      5 O1          1.1550   -6.1110    0.9170 O.2     1     ****   -0.6240 
      6 N2          2.8240   -7.6210    0.6660 N.2     1     ****   -0.7200 
      7 C4          3.9850   -7.9320    0.1600 C.2     1     ****    0.7520 
      8 N3          4.5230   -9.1710    0.4080 N.pl3   1     ****   -0.9100 
      9 C5          2.4140   -4.1260   -0.6530 C.3     1     ****    0.3120 
     10 C6          1.1800   -4.2000   -1.5590 C.3     1     ****   -0.0390 
     11 S1          0.4400   -2.5740   -1.3440 S.3     1     ****   -0.3140 
     12 C7          1.2580   -2.3300    0.2450 C.3     1     ****    0.1940 
     13 O2          2.0420   -3.4830    0.5660 O.3     1     ****   -0.4090 
     14 C8          0.2460   -2.1180    1.3760 C.3     1     ****    0.1030 
     15 O3         -0.4190   -0.8710    1.2300 O.3     1     ****   -0.5910 
     16 H1          4.0220   -9.8400    0.9810 H       1     ****    0.4430 
     17 H2          5.4220   -9.4560    0.0360 H       1     ****    0.4290 
     18 H3         -1.0500   -0.7960    1.9660 H       1     ****    0.4050 
     19 H4          5.7100   -7.2670   -1.0950 H       1     ****    0.1570 
     20 H5          4.6940   -5.0500   -1.5020 H       1     ****    0.1580 
     21 H6          3.1840   -3.5320   -1.1770 H       1     ****    0.0790 
     22 H7          1.4430   -4.4030   -2.6010 H       1     ****    0.0870 
     23 H8          0.4550   -4.9500   -1.2310 H       1     ****    0.1210 
     24 H9          1.9050   -1.4360    0.2400 H       1     ****    0.1070 
     25 H10        -0.4940   -2.9270    1.4110 H       1     ****    0.0810 
     26 H11         0.7640   -2.1180    2.3430 H       1     ****    0.0810 
@<TRIPOS>BOND
     1  2 1 2
     2  3 2 1
     3  4 3 1
     4  5 4 2
     5  6 4 1
     6  7 1 1
     7  7 6 2
     8  8 7 1
     9  9 3 1
    10 10 9 1
    11 11 10 1
    12 12 11 1
    13 13 9 1
    14 13 12 1
    15 14 12 1
    16 15 14 1
    17 16 8 1
    18 17 8 1
    19 18 15 1
    20 19 1 1
    21 20 2 1
    22 21 9 1
    23 22 10 1
    24 23 10 1
    25 24 12 1
    26 25 14 1
    27 26 14 1
@<TRIPOS>SUBSTRUCTURE
1     ****    1
@<TRIPOS>MOLECULE
ZINC00016086
19 19 1 0 0 
SMALL
USER_CHARGES


@<TRIPOS>ATOM
      1 C1          4.3170   -8.8850   -2.4210 C.3     1     ****    0.1320 
      2 O1          3.2470   -8.0310   -2.0040 O.3     1     ****   -0.4470 
      3 C2          3.4870   -7.3070   -0.8810 C.2     1     ****    0.6650 
      4 O2          4.5090   -7.3210   -0.2140 O.2     1     ****   -0.5780 
      5 C3          2.3140   -6.4670   -0.5510 C.ar    1     ****   -0.3040 
      6 C4          1.1450   -6.4470   -1.3090 C.ar    1     ****   -0.0640 
      7 C5          0.0870   -5.6240   -0.9250 C.ar    1     ****   -0.2520 
      8 C6          0.2180   -4.8310    0.2160 C.ar    1     ****    0.4040 
      9 N1          1.3530   -4.8410    0.9640 N.ar    1     ****   -0.6530 
     10 C7          2.3640   -5.6490    0.5680 C.ar    1     ****    0.4370 
     11 C8         -0.9110   -3.9290    0.6580 C.2     1     ****    0.8120 
     12 O3         -0.7190   -3.2370    1.7070 O.co2   1     ****   -0.7710 
     13 H1          4.0000   -9.4070   -3.3280 H       1     ****    0.0470 
     14 H2          5.2070   -8.2930   -2.6510 H       1     ****    0.0350 
     15 H3          4.5340   -9.6270   -1.6470 H       1     ****    0.0360 
     16 H4          1.0300   -7.0590   -2.1990 H       1     ****    0.1330 
     17 H5         -0.8220   -5.6140   -1.5200 H       1     ****    0.1750 
     18 H6          3.2400   -5.6090    1.2100 H       1     ****    0.0180 
     19 O4         -1.9700   -3.9250   -0.0470 O.co2   1     ****   -0.8250 
@<TRIPOS>BOND
     1  2 1 1
     2  3 2 1
     3  4 3 2
     4  5 3 1
     5  6 5 ar
     6  7 6 ar
     7  8 7 ar
     8  9 8 ar
     9 10 5 ar
    10 10 9 ar
    11 11 8 1
    12 12 11 1
    13 13 1 1
    14 14 1 1
    15 15 1 1
    16 16 6 1
    17 17 7 1
    18 18 10 1
    19 19 11 2
@<TRIPOS>SUBSTRUCTURE
1     ****    1
@<TRIPOS>MOLECULE
ZINC00016592
20 20 1 0 0 
SMALL
USER_CHARGES


@<TRIPOS>ATOM
      1 C1          5.0500  -10.7640   -1.3510 C.3     1     ****    0.1270 
      2 O1          4.3440   -9.6560   -0.7850 O.3     1     ****   -0.4370 
      3 C2          4.1440   -8.6060   -1.6210 C.2     1     ****    0.6410 
      4 O2          4.5070   -8.5290   -2.7850 O.2     1     ****   -0.5360 
      5 C3          3.4040   -7.5220   -0.9260 C.ar    1     ****   -0.1050 
      6 C4          2.9960   -7.6290    0.4110 C.ar    1     ****   -0.0850 
      7 C5          2.3020   -6.5800    1.0210 C.ar    1     ****   -0.0900 
      8 C6          2.0160   -5.4230    0.2930 C.ar    1     ****   -0.1660 
      9 C7          2.4180   -5.3060   -1.0380 C.ar    1     ****   -0.1060 
     10 C8          3.1110   -6.3550   -1.6450 C.ar    1     ****   -0.0890 
     11 C9          1.2860   -4.3060    0.9180 C.2     1     ****    0.5720 
     12 O3          0.9040   -4.3420    2.0800 O.2     1     ****   -0.5170 
     13 H1          5.1440  -11.5360   -0.5820 H       1     ****    0.0640 
     14 H2          4.4920  -11.1780   -2.1960 H       1     ****    0.0480 
     15 H3          6.0530  -10.4560   -1.6620 H       1     ****    0.0480 
     16 H4          3.2060   -8.5170    1.0010 H       1     ****    0.1620 
     17 H5          1.9940   -6.6810    2.0580 H       1     ****    0.1610 
     18 H6          2.2000   -4.4100   -1.6130 H       1     ****    0.1420 
     19 H7          3.4160   -6.2460   -2.6840 H       1     ****    0.1620 
     20 H8          1.0960   -3.4250    0.2820 H       1     ****    0.0040 
@<TRIPOS>BOND
     1  2 1 1
     2  3 2 1
     3  4 3 2
     4  5 3 1
     5  6 5 ar
     6  7 6 ar
     7  8 7 ar
     8  9 8 ar
     9 10 5 ar
    10 10 9 ar
    11 11 8 1
    12 12 11 2
    13 13 1 1
    14 14 1 1
    15 15 1 1
    16 16 6 1
    17 17 7 1
    18 18 9 1
    19 19 10 1
    20 20 11 1
@<TRIPOS>SUBSTRUCTURE
1     ****    1
@<TRIPOS>MOLECULE
ZINC00017253
32 34 1 0 0 
SMALL
USER_CHARGES


@<TRIPOS>ATOM
      1 C1          0.9550    9.3120   14.0850 C.ar    1     ****   -0.1360 
      2 C2         -0.1220    9.5350   13.2270 C.ar    1     ****   -0.0850 
      3 C3         -0.0080    9.2600   11.8590 C.ar    1     ****   -0.1320 
      4 C4          1.2070    8.7600   11.3660 C.ar    1     ****   -0.0530 
      5 C5          2.2910    8.5240   12.2230 C.ar    1     ****   -0.1700 
      6 C6          2.1570    8.8120   13.5850 C.ar    1     ****   -0.0690 
      7 C7          3.5930    8.0120   11.6750 C.3     1     ****    0.6880 
      8 F1          3.4330    7.1650   10.6190 F       1     ****   -0.2340 
      9 F2          4.3970    9.0160   11.2310 F       1     ****   -0.2320 
     10 F3          4.3280    7.3200   12.5890 F       1     ****   -0.2370 
     11 C8         -1.1580    9.5260   10.9260 C.3     1     ****    0.0970 
     12 N1         -1.1190   10.8870   10.4230 N.pl3   1     ****   -0.2640 
     13 C9         -1.7500   11.9670   10.9800 C.2     1     ****    0.4250 
     14 N2         -1.5440   13.0670   10.2880 N.2     1     ****   -0.5490 
     15 C10        -0.7550   12.6780    9.2320 C.ar    1     ****   -0.1030 
     16 C11        -0.4840   11.3230    9.2920 C.ar    1     ****    0.4230 
     17 N3          0.2470   10.6070    8.4280 N.ar    1     ****   -0.6750 
     18 C12         0.7520   11.3300    7.4130 C.ar    1     ****    0.4460 
     19 N4          0.5610   12.6810    7.2360 N.ar    1     ****    0.2770 
     20 C13        -0.2090   13.3830    8.1580 C.ar    1     ****    0.0850 
     21 N5         -0.4060   14.7430    7.9840 N.pl3   1     ****   -0.4080 
     22 O1          1.0870   13.2700    6.2320 O.3     1     ****   -0.6310 
     23 H1          0.0170   15.2000    7.1850 H       1     ****    0.3090 
     24 H2         -0.9610   15.2730    8.6420 H       1     ****    0.3070 
     25 H3          0.8580    9.5320   15.1450 H       1     ****    0.1460 
     26 H4         -1.0500    9.9290   13.6340 H       1     ****    0.1360 
     27 H5          1.3110    8.5540   10.3020 H       1     ****    0.1690 
     28 H6          2.9880    8.6510   14.2670 H       1     ****    0.1560 
     29 H7         -1.1450    8.8410   10.0710 H       1     ****    0.0910 
     30 H8         -2.1180    9.3790   11.4350 H       1     ****    0.0670 
     31 H9         -2.3390   11.8940   11.8850 H       1     ****    0.0740 
     32 H10         1.3560   10.8400    6.6660 H       1     ****    0.0840 
@<TRIPOS>BOND
     1  2 1 ar
     2  3 2 ar
     3  4 3 ar
     4  5 4 ar
     5  6 1 ar
     6  6 5 ar
     7  7 5 1
     8  8 7 1
     9  9 7 1
    10 10 7 1
    11 11 3 1
    12 12 11 1
    13 13 12 1
    14 14 13 2
    15 15 14 1
    16 16 12 1
    17 16 15 ar
    18 17 16 ar
    19 18 17 ar
    20 19 18 ar
    21 20 15 ar
    22 20 19 ar
    23 21 20 1
    24 22 19 1
    25 23 21 1
    26 24 21 1
    27 25 1 1
    28 26 2 1
    29 27 4 1
    30 28 6 1
    31 29 11 1
    32 30 11 1
    33 31 13 1
    34 32 18 1
@<TRIPOS>SUBSTRUCTURE
1     ****    1
@<TRIPOS>MOLECULE
ZINC00017881
30 32 1 0 0 
SMALL
USER_CHARGES


@<TRIPOS>ATOM
      1 C1          5.6220   -9.2610   -0.3840 C.ar    1     ****   -0.1100 
      2 C2          6.5940   -8.2690   -0.4950 C.ar    1     ****   -0.1360 
      3 C3          6.4640   -7.0770    0.2220 C.ar    1     ****   -0.0890 
      4 C4          5.3560   -6.8580    1.0560 C.ar    1     ****   -0.0760 
      5 C5          4.3900   -7.8710    1.1640 C.ar    1     ****   -0.0980 
      6 C6          4.5220   -9.0620    0.4470 C.ar    1     ****   -0.1340 
      7 C7          5.2430   -5.5980    1.8170 C.2     1     ****    0.1830 
      8 C8          4.0790   -4.9430    1.9310 C.2     1     ****   -0.3080 
      9 C9          4.0230   -3.6820    2.6960 C.2     1     ****    0.5960 
     10 O1          2.9660   -3.0760    2.8070 O.2     1     ****   -0.5170 
     11 C10         5.2920   -3.2200    3.2970 C.ar    1     ****   -0.2510 
     12 C11         6.4380   -3.9970    3.0940 C.ar    1     ****    0.1860 
     13 O2          6.4350   -5.1630    2.3680 O.3     1     ****   -0.2230 
     14 C12         7.6680   -3.6120    3.6360 C.ar    1     ****   -0.2540 
     15 C13         7.7500   -2.4410    4.3840 C.ar    1     ****    0.1420 
     16 C14         6.6160   -1.6620    4.5910 C.ar    1     ****   -0.0300 
     17 C15         5.3870   -2.0450    4.0510 C.ar    1     ****    0.2250 
     18 O3          4.2880   -1.2600    4.2690 O.3     1     ****   -0.4460 
     19 O4          6.6830   -0.5090    5.3250 O.3     1     ****   -0.5120 
     20 O5          8.9350   -2.0340    4.9290 O.3     1     ****   -0.5070 
     21 H1          4.5720   -0.5010    4.8110 H       1     ****    0.4430 
     22 H2          7.6080   -0.4070    5.6160 H       1     ****    0.4470 
     23 H3          9.6240   -2.6810    4.6960 H       1     ****    0.4380 
     24 H4          5.7240  -10.1880   -0.9410 H       1     ****    0.1360 
     25 H5          7.4540   -8.4230   -1.1400 H       1     ****    0.1380 
     26 H6          7.2360   -6.3190    0.1130 H       1     ****    0.1460 
     27 H7          3.5260   -7.7510    1.8150 H       1     ****    0.1430 
     28 H8          3.7650   -9.8370    0.5390 H       1     ****    0.1390 
     29 H9          3.1550   -5.2860    1.4770 H       1     ****    0.1700 
     30 H10         8.5490   -4.2260    3.4700 H       1     ****    0.1600 
@<TRIPOS>BOND
     1  2 1 ar
     2  3 2 ar
     3  4 3 ar
     4  5 4 ar
     5  6 1 ar
     6  6 5 ar
     7  7 4 1
     8  8 7 2
     9  9 8 1
    10 10 9 2
    11 11 9 1
    12 12 11 ar
    13 13 7 1
    14 13 12 1
    15 14 12 ar
    16 15 14 ar
    17 16 15 ar
    18 17 11 ar
    19 17 16 ar
    20 18 17 1
    21 19 16 1
    22 20 15 1
    23 21 18 1
    24 22 19 1
    25 23 20 1
    26 24 1 1
    27 25 2 1
    28 26 3 1
    29 27 5 1
    30 28 6 1
    31 29 8 1
    32 30 14 1
@<TRIPOS>SUBSTRUCTURE
1     ****    1
@<TRIPOS>MOLECULE
ZINC00017883
29 31 1 0 0 
SMALL
USER_CHARGES


@<TRIPOS>ATOM
      1 C1          0.3180   12.1310    7.1110 C.2     1     ****    0.4040 
      2 N1          0.5230   12.6120    8.3210 N.2     1     ****   -0.5780 
      3 C2          1.2240   11.6280    8.9540 C.2     1     ****    0.1690 
      4 C3          1.7220   11.6040   10.3040 C.2     1     ****    0.6530 
      5 O1          1.5740   12.5160   11.1080 O.2     1     ****   -0.5940 
      6 N2          2.3910   10.4060   10.5740 N.am    1     ****   -0.5140 
      7 C4          2.5620    9.3510    9.6580 C.2     1     ****    0.7020 
      8 N3          2.0990    9.3930    8.4300 N.2     1     ****   -0.6870 
      9 C5          1.4480   10.5440    8.1380 C.2     1     ****    0.1300 
     10 N4          0.8620   10.8780    6.9490 N.pl3   1     ****   -0.2250 
     11 C6          0.7990   10.0960    5.7290 C.3     1     ****    0.2410 
     12 C7         -0.0610    8.8580    5.8420 C.3     1     ****    0.1050 
     13 O2          0.4800    8.0120    4.8270 O.3     1     ****   -0.4270 
     14 C8          1.8590    8.3890    4.7080 C.3     1     ****    0.3290 
     15 O3          2.0880    9.6290    5.3880 O.3     1     ****   -0.4410 
     16 C9          2.7410    7.3090    5.3320 C.3     1     ****    0.0970 
     17 O4          4.1050    7.5650    5.0230 O.3     1     ****   -0.5990 
     18 N5          3.2490    8.2670   10.1280 N.pl3   1     ****   -0.9150 
     19 H1          2.7790   10.2960   11.5040 H       1     ****    0.3340 
     20 H2          4.6300    6.8700    5.4560 H       1     ****    0.4040 
     21 H3          3.6100    8.2280   11.0740 H       1     ****    0.4240 
     22 H4          3.4160    7.4660    9.5300 H       1     ****    0.4440 
     23 H5         -0.2120   12.6400    6.3170 H       1     ****    0.0700 
     24 H6          0.3890   10.7480    4.9420 H       1     ****    0.0920 
     25 H7          0.0410    8.3410    6.8020 H       1     ****    0.0820 
     26 H8         -1.1220    9.0510    5.6580 H       1     ****    0.0750 
     27 H9          2.1190    8.4880    3.6440 H       1     ****    0.1020 
     28 H10         2.6300    7.2950    6.4210 H       1     ****    0.0570 
     29 H11         2.4710    6.3210    4.9460 H       1     ****    0.0680 
@<TRIPOS>BOND
     1  2 1 2
     2  3 2 1
     3  4 3 1
     4  5 4 2
     5  6 4 1
     6  7 6 1
     7  8 7 2
     8  9 3 ar
     9  9 8 1
    10 10 1 1
    11 10 9 1
    12 11 10 1
    13 12 11 1
    14 13 12 1
    15 14 13 1
    16 15 11 1
    17 15 14 1
    18 16 14 1
    19 17 16 1
    20 18 7 1
    21 19 6 1
    22 20 17 1
    23 21 18 1
    24 22 18 1
    25 23 1 1
    26 24 11 1
    27 25 12 1
    28 26 12 1
    29 27 14 1
    30 28 16 1
    31 29 16 1
@<TRIPOS>SUBSTRUCTURE
1     ****    1
@<TRIPOS>MOLECULE
ZINC00018684
28 29 1 0 0 
SMALL
USER_CHARGES


@<TRIPOS>ATOM
      1 C1          5.0690   -5.2770   -0.8860 C.2     1     ****    0.0360 
      2 C2          5.4680   -6.5420   -0.9540 C.2     1     ****   -0.1550 
      3 C3          4.4530   -7.6030   -0.8060 C.2     1     ****    0.7500 
      4 N1          3.1960   -7.3040   -0.6160 N.2     1     ****   -0.7130 
      5 C4          2.7770   -5.9840   -0.5460 C.2     1     ****    0.8390 
      6 O1          1.5850   -5.7340   -0.3670 O.2     1     ****   -0.6160 
      7 N2          3.7420   -4.9600   -0.6800 N.am    1     ****   -0.3840 
      8 C5          3.3690   -3.5340   -0.6320 C.3     1     ****    0.3120 
      9 C6          2.4920   -3.0930   -1.8100 C.3     1     ****   -0.1000 
     10 C7          1.1650   -2.7430   -1.1740 C.3     1     ****   -0.0980 
     11 C8          1.5720   -2.4010    0.2500 C.3     1     ****    0.1050 
     12 O2          2.6570   -3.2640    0.5760 O.3     1     ****   -0.4300 
     13 C9          0.4350   -2.6070    1.2430 C.3     1     ****    0.1180 
     14 O3          0.8150   -2.0650    2.5040 O.3     1     ****   -0.6010 
     15 N3          4.8420   -8.9180   -0.8720 N.pl3   1     ****   -0.9150 
     16 F1          6.7450   -6.9110   -1.1520 F       1     ****   -0.1610 
     17 H1          0.0850   -2.2430    3.1210 H       1     ****    0.4050 
     18 H2          4.1600   -9.6610   -0.7730 H       1     ****    0.4510 
     19 H3          5.8100   -9.1840   -1.0180 H       1     ****    0.4440 
     20 H4          5.7770   -4.4640   -0.9910 H       1     ****    0.1700 
     21 H5          4.2920   -2.9340   -0.6730 H       1     ****    0.0670 
     22 H6          2.9240   -2.1930   -2.2640 H       1     ****    0.0530 
     23 H7          2.4000   -3.8410   -2.6040 H       1     ****    0.0820 
     24 H8          0.6520   -1.9180   -1.6780 H       1     ****    0.0550 
     25 H9          0.4980   -3.6120   -1.1990 H       1     ****    0.0800 
     26 H10         1.8930   -1.3470    0.2840 H       1     ****    0.0670 
     27 H11        -0.4730   -2.0930    0.9120 H       1     ****    0.0710 
     28 H12         0.2220   -3.6710    1.3850 H       1     ****    0.0670 
@<TRIPOS>BOND
     1  2 1 2
     2  3 2 1
     3  4 3 2
     4  5 4 1
     5  6 5 2
     6  7 1 1
     7  7 5 1
     8  8 7 1
     9  9 8 1
    10 10 9 1
    11 11 10 1
    12 12 8 1
    13 12 11 1
    14 13 11 1
    15 14 13 1
    16 15 3 1
    17 16 2 1
    18 17 14 1
    19 18 15 1
    20 19 15 1
    21 20 1 1
    22 21 8 1
    23 22 9 1
    24 23 9 1
    25 24 10 1
    26 25 10 1
    27 26 11 1
    28 27 13 1
    29 28 13 1
@<TRIPOS>SUBSTRUCTURE
1     ****    1
@<TRIPOS>MOLECULE
ZINC00019625
34 36 1 0 0 
SMALL
USER_CHARGES


@<TRIPOS>ATOM
      1 C1          6.8840    0.4950    1.6460 C.3     1     ****   -0.0630 
      2 C2          5.9820    0.1880    2.8000 C.ar    1     ****   -0.0260 
      3 C3          6.0530   -1.0410    3.4620 C.ar    1     ****   -0.0090 
      4 C4          5.2040   -1.3720    4.5320 C.ar    1     ****    0.2650 
      5 C5          4.2330   -0.4310    4.9230 C.ar    1     ****   -0.2790 
      6 C6          3.2850   -0.6850    6.0330 C.2     1     ****    0.6070 
      7 O1          3.2880   -1.7180    6.6900 O.2     1     ****   -0.5830 
      8 C7          2.3100    0.3810    6.3320 C.2     1     ****   -0.3240 
      9 C8          2.3230    1.5090    5.6090 C.2     1     ****    0.2090 
     10 O2          3.2150    1.7600    4.5820 O.3     1     ****   -0.2100 
     11 C9          4.1370    0.7960    4.2600 C.ar    1     ****    0.1590 
     12 C10         5.0040    1.0940    3.2080 C.ar    1     ****    0.0360 
     13 F1          4.8900    2.2730    2.5770 F       1     ****   -0.1250 
     14 C11         1.3780    2.6140    5.8690 C.ar    1     ****   -0.1110 
     15 C12         1.8190    3.9450    5.8120 C.ar    1     ****   -0.0510 
     16 C13         0.9360    5.0070    6.0420 C.ar    1     ****   -0.1910 
     17 C14        -0.4080    4.7680    6.3360 C.ar    1     ****    0.1570 
     18 C15        -0.8450    3.4420    6.3710 C.ar    1     ****    0.0400 
     19 C16         0.0260    2.3750    6.1440 C.ar    1     ****   -0.0870 
     20 F2         -2.1350    3.1760    6.6270 F       1     ****   -0.1440 
     21 N1         -1.2900    5.8180    6.5370 N.pl3   1     ****   -0.8280 
     22 N2          5.3250   -2.6220    5.1260 N.pl3   1     ****   -0.8560 
     23 F3          6.9670   -1.9410    3.0620 F       1     ****   -0.1440 
     24 H1         -0.9560    6.7720    6.5650 H       1     ****    0.4100 
     25 H2         -2.2500    5.6270    6.7950 H       1     ****    0.4160 
     26 H3          6.0680   -3.2490    4.8450 H       1     ****    0.4420 
     27 H4          4.7520   -2.8630    5.9260 H       1     ****    0.4740 
     28 H5          7.8590    0.0130    1.7720 H       1     ****    0.0620 
     29 H6          6.4330    0.1420    0.7140 H       1     ****    0.0630 
     30 H7          7.0670    1.5710    1.5640 H       1     ****    0.0630 
     31 H8          1.6200    0.2030    7.1490 H       1     ****    0.1720 
     32 H9          2.8600    4.1760    5.5940 H       1     ****    0.1540 
     33 H10         1.3130    6.0260    5.9890 H       1     ****    0.1440 
     34 H11        -0.3740    1.3640    6.1740 H       1     ****    0.1570 
@<TRIPOS>BOND
     1  2 1 1
     2  3 2 ar
     3  4 3 ar
     4  5 4 ar
     5  6 5 1
     6  7 6 2
     7  8 6 1
     8  9 8 2
     9 10 9 1
    10 11 5 ar
    11 11 10 1
    12 12 2 ar
    13 12 11 ar
    14 13 12 1
    15 14 9 1
    16 15 14 ar
    17 16 15 ar
    18 17 16 ar
    19 18 17 ar
    20 19 14 ar
    21 19 18 ar
    22 20 18 1
    23 21 17 1
    24 22 4 1
    25 23 3 1
    26 24 21 1
    27 25 21 1
    28 26 22 1
    29 27 22 1
    30 28 1 1
    31 29 1 1
    32 30 1 1
    33 31 8 1
    34 32 15 1
    35 33 16 1
    36 34 19 1
@<TRIPOS>SUBSTRUCTURE
1     ****    1
@<TRIPOS>MOLECULE
ZINC00019636
32 34 1 0 0 
SMALL
USER_CHARGES


@<TRIPOS>ATOM
      1 C1          5.0800   -9.4940   -1.1380 C.3     1     ****    0.2140 
      2 N1          4.4130   -9.1090    0.0990 N.pl3   1     ****   -0.6990 
      3 C2          3.9840  -10.1680    1.0040 C.3     1     ****    0.2130 
      4 C3          4.1930   -7.7680    0.4090 C.ar    1     ****    0.2170 
      5 C4          4.5940   -6.7260   -0.4460 C.ar    1     ****   -0.2110 
      6 C5          4.3760   -5.3720   -0.1390 C.ar    1     ****   -0.0650 
      7 C6          3.7430   -4.9940    1.0480 C.ar    1     ****   -0.1870 
      8 C7          3.3310   -6.0180    1.9080 C.ar    1     ****   -0.0340 
      9 C8          3.5540   -7.3680    1.5950 C.ar    1     ****   -0.2190 
     10 C9          3.4820   -3.5910    1.4210 C.2     1     ****    0.4540 
     11 N2          2.6320   -3.2300    2.3620 N.2     1     ****   -0.5390 
     12 C10         2.6030   -1.8530    2.5020 C.ar    1     ****    0.0920 
     13 C11         1.8030   -1.1250    3.4090 C.ar    1     ****   -0.0790 
     14 C12         1.8820    0.2710    3.4370 C.ar    1     ****   -0.1310 
     15 C13         2.7430    0.9460    2.5780 C.ar    1     ****   -0.1250 
     16 C14         3.5450    0.2470    1.6720 C.ar    1     ****   -0.0890 
     17 C15         3.4580   -1.1550    1.6510 C.ar    1     ****   -0.0900 
     18 S1          4.3060   -2.2790    0.6660 S.2     1     ****   -0.0640 
     19 H1          4.5110   -9.1530   -2.0100 H       1     ****    0.0320 
     20 H2          6.0940   -9.0810   -1.1800 H       1     ****    0.0360 
     21 H3          5.1770  -10.5810   -1.2290 H       1     ****    0.0460 
     22 H4          4.4810  -10.0760    1.9760 H       1     ****    0.0370 
     23 H5          2.8980  -10.1440    1.1460 H       1     ****    0.0330 
     24 H6          4.2310  -11.1620    0.6150 H       1     ****    0.0460 
     25 H7          5.0920   -6.9370   -1.3890 H       1     ****    0.1360 
     26 H8          4.7100   -4.6360   -0.8660 H       1     ****    0.1350 
     27 H9          2.8300   -5.7870    2.8460 H       1     ****    0.1520 
     28 H10         3.2050   -8.1010    2.3180 H       1     ****    0.1370 
     29 H11         1.1280   -1.6460    4.0820 H       1     ****    0.1500 
     30 H12         1.2650    0.8300    4.1350 H       1     ****    0.1340 
     31 H13         2.7930    2.0310    2.6110 H       1     ****    0.1340 
     32 H14         4.2150    0.7790    1.0040 H       1     ****    0.1380 
@<TRIPOS>BOND
     1  2 1 1
     2  3 2 1
     3  4 2 1
     4  5 4 ar
     5  6 5 ar
     6  7 6 ar
     7  8 7 ar
     8  9 4 ar
     9  9 8 ar
    10 10 7 1
    11 11 10 2
    12 12 11 1
    13 13 12 ar
    14 14 13 ar
    15 15 14 ar
    16 16 15 ar
    17 17 12 ar
    18 17 16 ar
    19 18 10 1
    20 18 17 1
    21 19 1 1
    22 20 1 1
    23 21 1 1
    24 22 3 1
    25 23 3 1
    26 24 3 1
    27 25 5 1
    28 26 6 1
    29 27 8 1
    30 28 9 1
    31 29 13 1
    32 30 14 1
    33 31 15 1
    34 32 16 1
@<TRIPOS>SUBSTRUCTURE
1     ****    1
@<TRIPOS>MOLECULE
ZINC00020238
45 49 1 0 0 
SMALL
USER_CHARGES


@<TRIPOS>ATOM
      1 C1          6.3340   -0.8810    3.0350 C.3     1     ****    0.0830 
      2 C2          5.6720    0.8890    4.6410 C.3     1     ****    0.1150 
      3 C3          4.5320    1.6450    5.2990 C.3     1     ****   -0.0900 
      4 C4          3.1540    0.9260    5.3180 C.3     1     ****   -0.0770 
      5 C5          2.3180    1.4700    4.2430 C.ar    1     ****   -0.1520 
      6 C6          2.2140    0.9820    2.9640 C.ar    1     ****   -0.1120 
      7 C7          1.3600    1.6970    2.1340 C.ar    1     ****   -0.0870 
      8 C8          0.6540    2.8340    2.6280 C.ar    1     ****   -0.1680 
      9 C9          0.7460    3.2540    3.9730 C.ar    1     ****    0.1590 
     10 C10         1.5800    2.5220    4.7840 C.ar    1     ****    0.0850 
     11 O1          1.7820    2.6140    6.1720 O.3     1     ****   -0.2500 
     12 C11         2.2080    1.2600    6.4420 C.3     1     ****    0.0410 
     13 C12         2.9630    0.9940    7.7180 C.2     1     ****    0.5680 
     14 O2          3.0600    1.8020    8.6350 O.2     1     ****   -0.4460 
     15 C13         3.5240   -0.4490    7.8060 C.3     1     ****   -0.1990 
     16 C14         4.0940   -1.0610    6.4750 C.3     1     ****   -0.1020 
     17 C15         3.3380   -0.5880    5.2050 C.3     1     ****    0.1710 
     18 C16         3.9550   -0.7850    3.7670 C.3     1     ****    0.1500 
     19 C17         2.9090   -0.3260    2.6480 C.3     1     ****   -0.0370 
     20 O3          2.0770   -1.2770    5.1920 O.3     1     ****   -0.5770 
     21 O4          0.0720    4.2860    4.5520 O.3     1     ****   -0.2940 
     22 C18        -0.7850    5.0420    3.7040 C.3     1     ****    0.1050 
     23 H1          1.7810   -1.4530    6.1010 H       1     ****    0.4320 
     24 H2          7.2070   -0.2660    2.8030 H       1     ****    0.1030 
     25 H3          6.5570   -1.5950    3.8330 H       1     ****    0.1030 
     26 H4          5.9870   -1.3900    2.1320 H       1     ****    0.1040 
     27 H5          6.2420    0.2740    5.3400 H       1     ****    0.0960 
     28 H6          6.3920    1.6070    4.2290 H       1     ****    0.1000 
     29 H7          4.8620    1.8870    6.3170 H       1     ****    0.0980 
     30 H8          4.4470    2.6240    4.8060 H       1     ****    0.1020 
     31 H9          1.2040    1.3850    1.1050 H       1     ****    0.1500 
     32 H10         0.0040    3.3500    1.9250 H       1     ****    0.1600 
     33 H11         1.2950    0.6280    6.4580 H       1     ****    0.0890 
     34 H12         4.3090   -0.4690    8.5700 H       1     ****    0.1020 
     35 H13         2.7010   -1.0790    8.1620 H       1     ****    0.0830 
     36 H14         5.1610   -0.8560    6.4500 H       1     ****    0.0510 
     37 H15         4.0190   -2.1540    6.5550 H       1     ****    0.0830 
     38 H16         4.1580   -1.8560    3.5960 H       1     ****    0.1140 
     39 H17         2.1360   -1.1000    2.5660 H       1     ****    0.1260 
     40 H18         3.4040   -0.2590    1.6720 H       1     ****    0.0630 
     41 H19        -1.2360    5.8360    4.3070 H       1     ****    0.0910 
     42 H20        -0.2210    5.5180    2.8950 H       1     ****    0.0420 
     43 H21        -1.5960    4.4220    3.3090 H       1     ****    0.0440 
     44 N1          5.2280    0.0410    3.5050 N.4     1     ****   -0.6820 
     45 H22         5.0730    0.6720    2.6980 H       1     ****    0.4570 
@<TRIPOS>BOND
     1  3 2 1
     2  4 3 1
     3  5 4 1
     4  6 5 ar
     5  7 6 ar
     6  8 7 ar
     7  9 8 ar
     8 10 5 ar
     9 10 9 ar
    10 11 10 1
    11 12 4 1
    12 12 11 1
    13 13 12 1
    14 14 13 2
    15 15 13 1
    16 16 15 1
    17 17 4 1
    18 17 16 1
    19 18 17 1
    20 19 6 1
    21 19 18 1
    22 20 17 1
    23 21 9 1
    24 22 21 1
    25 23 20 1
    26 24 1 1
    27 25 1 1
    28 26 1 1
    29 27 2 1
    30 28 2 1
    31 29 3 1
    32 30 3 1
    33 31 7 1
    34 32 8 1
    35 33 12 1
    36 34 15 1
    37 35 15 1
    38 36 16 1
    39 37 16 1
    40 38 18 1
    41 39 19 1
    42 40 19 1
    43 41 22 1
    44 42 22 1
    45 43 22 1
    46 44 1 1
    47 44 2 1
    48 44 18 1
    49 45 44 1
@<TRIPOS>SUBSTRUCTURE
1     ****    1
@<TRIPOS>MOLECULE
ZINC00020258
37 40 1 0 0 
SMALL
USER_CHARGES


@<TRIPOS>ATOM
      1 C1          6.1400  -12.7300    0.1040 C.ar    1     ****   -0.1520 
      2 C2          7.0400  -12.0890   -0.7450 C.ar    1     ****   -0.0790 
      3 C3          7.0890  -10.7000   -0.7750 C.ar    1     ****   -0.1450 
      4 C4          6.2370   -9.9700    0.0560 C.ar    1     ****    0.1620 
      5 C5          5.3410  -10.5810    0.9290 C.ar    1     ****   -0.1810 
      6 C6          5.2930  -11.9820    0.9320 C.ar    1     ****   -0.0760 
      7 C7          4.5060   -9.7180    1.7710 C.2     1     ****    0.2440 
      8 C8          4.5600   -8.3780    1.6700 C.2     1     ****   -0.2540 
      9 C9          5.4390   -7.7410    0.6540 C.2     1     ****    0.7440 
     10 O1          5.4190   -6.5320    0.4440 O.2     1     ****   -0.6070 
     11 O2          6.3010   -8.5690   -0.0490 O.3     1     ****   -0.3160 
     12 C10         3.7160   -7.4440    2.5180 C.3     1     ****    0.0500 
     13 C11         4.5100   -6.7100    3.5850 C.2     1     ****   -0.3310 
     14 C12         4.8910   -5.4190    3.5000 C.2     1     ****    0.2710 
     15 C13         5.5900   -4.7560    4.6010 C.ar    1     ****   -0.1590 
     16 C14         5.9990   -3.4160    4.5640 C.ar    1     ****   -0.0480 
     17 C15         6.6690   -2.8450    5.6510 C.ar    1     ****   -0.1680 
     18 C16         6.9390   -3.6060    6.7880 C.ar    1     ****   -0.0760 
     19 C17         6.5380   -4.9380    6.8400 C.ar    1     ****   -0.1570 
     20 C18         5.8710   -5.4900    5.7470 C.ar    1     ****    0.1620 
     21 O3          5.4830   -6.8360    5.8470 O.3     1     ****   -0.3280 
     22 C19         4.7920   -7.4840    4.8310 C.2     1     ****    0.7480 
     23 O4          4.4350   -8.6480    4.9720 O.2     1     ****   -0.5890 
     24 O5          4.6740   -4.6200    2.3970 O.3     1     ****   -0.4870 
     25 O6          3.6690  -10.3220    2.6880 O.3     1     ****   -0.4750 
     26 H1          4.4750   -5.1800    1.6290 H       1     ****    0.4650 
     27 H2          4.0700  -11.1540    2.9850 H       1     ****    0.4410 
     28 H3          6.0910  -13.8150    0.1210 H       1     ****    0.1440 
     29 H4          7.6940  -12.6720   -1.3860 H       1     ****    0.1450 
     30 H5          7.7780  -10.1930   -1.4440 H       1     ****    0.1640 
     31 H6          4.5990  -12.5270    1.5660 H       1     ****    0.1380 
     32 H7          3.1920   -6.7410    1.8590 H       1     ****    0.0550 
     33 H8          2.8960   -7.9880    3.0030 H       1     ****    0.0950 
     34 H9          5.8050   -2.7960    3.6920 H       1     ****    0.1580 
     35 H10         6.9810   -1.8050    5.6080 H       1     ****    0.1420 
     36 H11         7.4590   -3.1600    7.6310 H       1     ****    0.1400 
     37 H12         6.7450   -5.5350    7.7230 H       1     ****    0.1590 
@<TRIPOS>BOND
     1  2 1 ar
     2  3 2 ar
     3  4 3 ar
     4  5 4 ar
     5  6 1 ar
     6  6 5 ar
     7  7 5 1
     8  8 7 2
     9  9 8 1
    10 10 9 2
    11 11 4 1
    12 11 9 1
    13 12 8 1
    14 13 12 1
    15 14 13 2
    16 15 14 1
    17 16 15 ar
    18 17 16 ar
    19 18 17 ar
    20 19 18 ar
    21 20 15 ar
    22 20 19 ar
    23 21 20 1
    24 22 13 1
    25 22 21 1
    26 23 22 2
    27 24 14 1
    28 25 7 1
    29 26 24 1
    30 27 25 1
    31 28 1 1
    32 29 2 1
    33 30 3 1
    34 31 6 1
    35 32 12 1
    36 33 12 1
    37 34 16 1
    38 35 17 1
    39 36 18 1
    40 37 19 1
@<TRIPOS>SUBSTRUCTURE
1     ****    1
@<TRIPOS>MOLECULE
ZINC00022418
38 40 1 0 0 
SMALL
USER_CHARGES


@<TRIPOS>ATOM
      1 C1          0.4090   -5.1540   -7.5720 C.ar    1     ****   -0.0980 
      2 C2         -0.8650   -4.9210   -7.0640 C.ar    1     ****   -0.2300 
      3 C3         -1.0060   -4.7880   -5.6920 C.ar    1     ****    0.3910 
      4 N1          0.0190   -4.8670   -4.8150 N.ar    1     ****   -0.6440 
      5 C4          1.2470   -5.0770   -5.3480 C.ar    1     ****    0.3630 
      6 C5          1.4930   -5.2430   -6.7050 C.ar    1     ****   -0.2010 
      7 C6          2.3570   -5.2190   -4.3860 C.2     1     ****    0.5810 
      8 O1          3.0700   -6.2150   -4.5100 O.2     1     ****   -0.6000 
      9 N2          2.5260   -4.2430   -3.4000 N.am    1     ****   -0.4620 
     10 C7          1.8210   -2.9550   -3.3350 C.3     1     ****    0.0880 
     11 C8          2.8100   -1.8020   -3.1690 C.3     1     ****    0.0720 
     12 N3          3.7450   -2.0430   -2.0690 N.am    1     ****   -0.4620 
     13 C9          4.4500   -3.3320   -2.1350 C.3     1     ****    0.0870 
     14 C10         3.4620   -4.4850   -2.3010 C.3     1     ****    0.0720 
     15 C11         3.9140   -1.0680   -1.0830 C.2     1     ****    0.5800 
     16 O2          3.2010   -0.0720   -0.9590 O.2     1     ****   -0.6000 
     17 C12         5.0250   -1.2090   -0.1220 C.ar    1     ****    0.3630 
     18 C13         4.7790   -1.0440    1.2350 C.ar    1     ****   -0.2010 
     19 C14         5.8620   -1.1320    2.1030 C.ar    1     ****   -0.0970 
     20 C15         7.1360   -1.3660    1.5950 C.ar    1     ****   -0.2300 
     21 C16         7.2780   -1.4990    0.2220 C.ar    1     ****    0.3910 
     22 N4          6.2520   -1.4200   -0.6540 N.ar    1     ****   -0.6440 
     23 H1          0.5560   -5.2710   -8.6420 H       1     ****    0.1450 
     24 H2         -1.7230   -4.8500   -7.7230 H       1     ****    0.1480 
     25 H3         -1.9810   -4.6110   -5.2480 H       1     ****    0.0280 
     26 H4          2.4900   -5.4330   -7.0860 H       1     ****    0.1610 
     27 H5          1.2280   -2.7730   -4.2330 H       1     ****    0.0650 
     28 H6          1.1420   -3.0050   -2.4760 H       1     ****    0.0570 
     29 H7          3.4150   -1.6940   -4.0770 H       1     ****    0.0460 
     30 H8          2.2670   -0.8620   -3.0250 H       1     ****    0.0920 
     31 H9          5.1300   -3.2820   -2.9930 H       1     ****    0.0570 
     32 H10         5.0440   -3.5140   -1.2370 H       1     ****    0.0650 
     33 H11         2.8560   -4.5920   -1.3930 H       1     ****    0.0460 
     34 H12         4.0040   -5.4250   -2.4450 H       1     ****    0.0920 
     35 H13         3.7810   -0.8540    1.6170 H       1     ****    0.1610 
     36 H14         5.7150   -1.0160    3.1720 H       1     ****    0.1450 
     37 H15         7.9950   -1.4370    2.2530 H       1     ****    0.1480 
     38 H16         8.2520   -1.6760   -0.2220 H       1     ****    0.0280 
@<TRIPOS>BOND
     1  2 1 ar
     2  3 2 ar
     3  4 3 ar
     4  5 4 ar
     5  6 1 ar
     6  6 5 ar
     7  7 5 1
     8  8 7 2
     9  9 7 1
    10 10 9 1
    11 11 10 1
    12 12 11 1
    13 13 12 1
    14 14 9 1
    15 14 13 1
    16 15 12 1
    17 16 15 2
    18 17 15 1
    19 18 17 ar
    20 19 18 ar
    21 20 19 ar
    22 21 20 ar
    23 22 17 ar
    24 22 21 ar
    25 23 1 1
    26 24 2 1
    27 25 3 1
    28 26 6 1
    29 27 10 1
    30 28 10 1
    31 29 11 1
    32 30 11 1
    33 31 13 1
    34 32 13 1
    35 33 14 1
    36 34 14 1
    37 35 18 1
    38 36 19 1
    39 37 20 1
    40 38 21 1
@<TRIPOS>SUBSTRUCTURE
1     ****    1
@<TRIPOS>MOLECULE
ZINC00023388
46 49 1 0 0 
SMALL
USER_CHARGES


@<TRIPOS>ATOM
      1 C1          4.1890   -4.4840   -6.8130 C.3     1     ****    0.1120 
      2 O1          3.1710   -5.3400   -6.3060 O.3     1     ****   -0.3280 
      3 C2          2.9440   -5.3000   -4.9560 C.ar    1     ****    0.1210 
      4 C3          1.9390   -6.1580   -4.5030 C.ar    1     ****   -0.1480 
      5 C4          1.6100   -6.2110   -3.1500 C.ar    1     ****   -0.1020 
      6 C5          2.2870   -5.4050   -2.2360 C.ar    1     ****   -0.1570 
      7 C6          3.3010   -4.5370   -2.6650 C.ar    1     ****   -0.0670 
      8 C7          3.6210   -4.4930   -4.0350 C.ar    1     ****   -0.1800 
      9 C8          4.0230   -3.6700   -1.6520 C.3     1     ****    0.2520 
     10 C9          5.5100   -4.0390   -1.5610 C.3     1     ****   -0.1770 
     11 C10         6.2320   -3.0990   -0.6230 C.2     1     ****    0.5850 
     12 O2          7.1660   -3.4700    0.0790 O.2     1     ****   -0.5440 
     13 C11         5.8100   -1.6770   -0.6500 C.ar    1     ****   -0.1940 
     14 C12         6.5790   -0.7070    0.0140 C.ar    1     ****   -0.0980 
     15 C13         6.2490    0.6580   -0.0370 C.ar    1     ****    0.1130 
     16 C14         5.1130    0.9940   -0.7950 C.ar    1     ****   -0.1240 
     17 C15         4.3420    0.0260   -1.4540 C.ar    1     ****   -0.1690 
     18 C16         4.6660   -1.3290   -1.3740 C.ar    1     ****    0.1430 
     19 N1          3.8870   -2.2740   -2.0290 N.pl3   1     ****   -0.7210 
     20 N2          6.9990    1.6140    0.6130 N.pl3   1     ****   -0.6440 
     21 C17         8.1060    1.3140    1.5180 C.3     1     ****    0.1870 
     22 C18         8.3920    2.6500    2.2000 C.3     1     ****   -0.0870 
     23 C19         8.0210    3.6670    1.1360 C.3     1     ****   -0.0860 
     24 C20         6.7820    3.0530    0.4870 C.3     1     ****    0.1880 
     25 H1          3.0230   -1.9660   -2.4610 H       1     ****    0.4040 
     26 H2          4.2450   -4.6370   -7.8950 H       1     ****    0.0670 
     27 H3          3.9430   -3.4320   -6.6380 H       1     ****    0.0360 
     28 H4          5.1660   -4.7400   -6.3900 H       1     ****    0.0350 
     29 H5          1.4040   -6.7920   -5.2060 H       1     ****    0.1510 
     30 H6          0.8270   -6.8810   -2.8070 H       1     ****    0.1360 
     31 H7          2.0160   -5.4610   -1.1840 H       1     ****    0.1340 
     32 H8          4.4040   -3.8140   -4.3610 H       1     ****    0.1520 
     33 H9          3.5940   -3.8360   -0.6490 H       1     ****    0.0370 
     34 H10         5.6140   -5.0620   -1.1800 H       1     ****    0.0830 
     35 H11         6.0180   -3.9880   -2.5310 H       1     ****    0.0860 
     36 H12         7.4620   -1.0300    0.5610 H       1     ****    0.1560 
     37 H13         4.7930    2.0290   -0.8850 H       1     ****    0.1350 
     38 H14         3.4720    0.3490   -2.0210 H       1     ****    0.1330 
     39 H15         7.8470    0.5580    2.2670 H       1     ****    0.0340 
     40 H16         8.9790    0.9780    0.9470 H       1     ****    0.0590 
     41 H17         7.7410    2.7710    3.0750 H       1     ****    0.0480 
     42 H18         9.4300    2.7370    2.5310 H       1     ****    0.0550 
     43 H19         7.8290    4.6630    1.5450 H       1     ****    0.0500 
     44 H20         8.8300    3.7480    0.4000 H       1     ****    0.0540 
     45 H21         6.7040    3.3800   -0.5560 H       1     ****    0.0550 
     46 H22         5.8770    3.3470    1.0300 H       1     ****    0.0260 
@<TRIPOS>BOND
     1  2 1 1
     2  3 2 1
     3  4 3 ar
     4  5 4 ar
     5  6 5 ar
     6  7 6 ar
     7  8 3 ar
     8  8 7 ar
     9  9 7 1
    10 10 9 1
    11 11 10 1
    12 12 11 2
    13 13 11 1
    14 14 13 ar
    15 15 14 ar
    16 16 15 ar
    17 17 16 ar
    18 18 13 ar
    19 18 17 ar
    20 19 9 1
    21 19 18 1
    22 20 15 1
    23 21 20 1
    24 22 21 1
    25 23 22 1
    26 24 20 1
    27 24 23 1
    28 25 19 1
    29 26 1 1
    30 27 1 1
    31 28 1 1
    32 29 4 1
    33 30 5 1
    34 31 6 1
    35 32 8 1
    36 33 9 1
    37 34 10 1
    38 35 10 1
    39 36 14 1
    40 37 16 1
    41 38 17 1
    42 39 21 1
    43 40 21 1
    44 41 22 1
    45 42 22 1
    46 43 23 1
    47 44 23 1
    48 45 24 1
    49 46 24 1
@<TRIPOS>SUBSTRUCTURE
1     ****    1
@<TRIPOS>MOLECULE
ZINC00023543
35 37 1 0 0 
SMALL
USER_CHARGES


@<TRIPOS>ATOM
      1 C1          4.4720   -8.4260    2.0620 C.2     1     ****    0.3860 
      2 N1          4.1640   -8.7120    0.7590 N.pl3   1     ****   -0.3860 
      3 C2          3.6950   -7.5610    0.1940 C.ar    1     ****    0.4770 
      4 C3          3.7420   -6.6160    1.2020 C.ar    1     ****   -0.2190 
      5 N2          4.2290   -7.1670    2.3620 N.2     1     ****   -0.5000 
      6 C4          3.3070   -5.3380    0.8680 C.ar    1     ****    0.7600 
      7 N3          2.8720   -5.1060   -0.4000 N.ar    1     ****   -0.8400 
      8 C5          2.8730   -6.1190   -1.3060 C.ar    1     ****    0.9160 
      9 N4          3.2780   -7.3870   -1.0660 N.ar    1     ****   -0.7800 
     10 N5          2.4210   -5.8270   -2.5800 N.pl3   1     ****   -0.9270 
     11 O1          3.3210   -4.3350    1.8180 O.3     1     ****   -0.4190 
     12 C6          2.8680   -3.0690    1.3290 C.3     1     ****    0.1360 
     13 C7          2.9470   -2.0410    2.4690 C.3     1     ****   -0.0700 
     14 C8          4.3950   -1.8520    2.9550 C.3     1     ****   -0.0750 
     15 C9          4.4910   -0.7870    4.0450 C.3     1     ****   -0.0760 
     16 C10         3.8830    0.5370    3.5960 C.3     1     ****   -0.0780 
     17 C11         2.4450    0.3580    3.1180 C.3     1     ****   -0.0750 
     18 C12         2.3440   -0.7010    2.0240 C.3     1     ****   -0.0740 
     19 H1          4.2650   -9.6060    0.2990 H       1     ****    0.3170 
     20 H2          2.1110   -4.8900   -2.7940 H       1     ****    0.4280 
     21 H3          2.4060   -6.5520   -3.2810 H       1     ****    0.4280 
     22 H4          4.8670   -9.1740    2.7360 H       1     ****    0.0720 
     23 H5          1.8270   -3.1570    0.9930 H       1     ****    0.0530 
     24 H6          3.4950   -2.7420    0.4900 H       1     ****    0.0560 
     25 H7          2.3630   -2.4270    3.3160 H       1     ****    0.0680 
     26 H8          4.7910   -2.7970    3.3460 H       1     ****    0.0610 
     27 H9          5.0350   -1.5640    2.1110 H       1     ****    0.0390 
     28 H10         3.9740   -1.1390    4.9460 H       1     ****    0.0420 
     29 H11         5.5420   -0.6350    4.3190 H       1     ****    0.0410 
     30 H12         3.9100    1.2560    4.4230 H       1     ****    0.0390 
     31 H13         4.4870    0.9610    2.7840 H       1     ****    0.0390 
     32 H14         1.8120    0.0690    3.9660 H       1     ****    0.0410 
     33 H15         2.0600    1.3130    2.7430 H       1     ****    0.0390 
     34 H16         2.8590   -0.3410    1.1240 H       1     ****    0.0410 
     35 H17         1.2900   -0.8380    1.7530 H       1     ****    0.0400 
@<TRIPOS>BOND
     1  2 1 1
     2  3 2 1
     3  4 3 ar
     4  5 1 2
     5  5 4 1
     6  6 4 ar
     7  7 6 ar
     8  8 7 ar
     9  9 3 ar
    10  9 8 ar
    11 10 8 1
    12 11 6 1
    13 12 11 1
    14 13 12 1
    15 14 13 1
    16 15 14 1
    17 16 15 1
    18 17 16 1
    19 18 13 1
    20 18 17 1
    21 19 2 1
    22 20 10 1
    23 21 10 1
    24 22 1 1
    25 23 12 1
    26 24 12 1
    27 25 13 1
    28 26 14 1
    29 27 14 1
    30 28 15 1
    31 29 15 1
    32 30 16 1
    33 31 16 1
    34 32 17 1
    35 33 17 1
    36 34 18 1
    37 35 18 1
@<TRIPOS>SUBSTRUCTURE
1     ****    1
@<TRIPOS>MOLECULE
ZINC00024169
43 46 1 0 0 
SMALL
USER_CHARGES


@<TRIPOS>ATOM
      1 C1         -8.5110    5.9630    4.5580 C.3     1     ****   -0.1000 
      2 C2         -7.0060    5.7330    4.4200 C.3     1     ****   -0.0980 
      3 C3         -6.5780    4.4650    3.5990 C.3     1     ****    0.1270 
      4 C4         -7.1380    4.6470    2.1740 C.2     1     ****    0.5920 
      5 O1         -8.2800    4.2470    1.9220 O.2     1     ****   -0.5230 
      6 C5         -6.3550    5.3180    1.1410 C.2     1     ****   -0.2060 
      7 C6         -6.7640    5.3810   -0.1880 C.2     1     ****   -0.1060 
      8 C7         -5.8550    6.1650   -0.9100 C.2     1     ****   -0.2080 
      9 C8         -4.8970    6.5740   -0.0190 C.2     1     ****   -0.1220 
     10 N1         -5.1700    6.0510    1.2380 N.pl3   1     ****    0.0380 
     11 C9         -4.3480    6.2640    2.3810 C.ar    1     ****   -0.0170 
     12 C10        -3.4410    7.3400    2.4010 C.ar    1     ****   -0.1380 
     13 C11        -2.5880    7.5410    3.4900 C.ar    1     ****   -0.1210 
     14 C12        -2.6160    6.6640    4.5680 C.ar    1     ****   -0.1260 
     15 C13        -3.5050    5.5950    4.5580 C.ar    1     ****   -0.1190 
     16 C14        -4.3830    5.4090    3.4810 C.ar    1     ****    0.0890 
     17 O2         -5.1570    4.2960    3.5510 O.3     1     ****   -0.3230 
     18 C15        -7.0600    3.1340    4.2210 C.ar    1     ****   -0.0680 
     19 C16        -7.3610    3.0000    5.5860 C.ar    1     ****   -0.1130 
     20 C17        -7.7320    1.7660    6.1280 C.ar    1     ****   -0.1350 
     21 C18        -7.7900    0.6320    5.3240 C.ar    1     ****   -0.1180 
     22 C19        -7.4710    0.7200    3.9680 C.ar    1     ****   -0.0790 
     23 C20        -7.0860    1.9610    3.4360 C.ar    1     ****   -0.0880 
     24 C21        -7.4730   -0.5060    3.1050 C.3     1     ****   -0.0540 
     25 H1         -8.6920    6.8220    5.2130 H       1     ****    0.0380 
     26 H2         -8.9690    6.1920    3.5910 H       1     ****    0.0540 
     27 H3         -9.0320    5.1050    4.9890 H       1     ****    0.0510 
     28 H4         -6.6080    6.6420    3.9520 H       1     ****    0.0550 
     29 H5         -6.5490    5.7090    5.4170 H       1     ****    0.0590 
     30 H6         -7.6550    4.9110   -0.5850 H       1     ****    0.1730 
     31 H7         -5.8870    6.4090   -1.9630 H       1     ****    0.1610 
     32 H8         -4.0160    7.1700   -0.2090 H       1     ****    0.1720 
     33 H9         -3.3840    8.0640    1.5940 H       1     ****    0.1430 
     34 H10        -1.8990    8.3810    3.4910 H       1     ****    0.1400 
     35 H11        -1.9460    6.8110    5.4100 H       1     ****    0.1420 
     36 H12        -3.5170    4.9030    5.3960 H       1     ****    0.1560 
     37 H13        -7.3050    3.8450    6.2650 H       1     ****    0.1320 
     38 H14        -7.9660    1.6910    7.1870 H       1     ****    0.1310 
     39 H15        -8.0720   -0.3210    5.7640 H       1     ****    0.1320 
     40 H16        -6.7940    2.0050    2.3880 H       1     ****    0.1420 
     41 H17        -8.2030   -1.2380    3.4650 H       1     ****    0.0420 
     42 H18        -7.7450   -0.2560    2.0740 H       1     ****    0.0480 
     43 H19        -6.4800   -0.9670    3.1080 H       1     ****    0.0470 
@<TRIPOS>BOND
     1  2 1 1
     2  3 2 1
     3  4 3 1
     4  5 4 2
     5  6 4 1
     6  7 6 2
     7  8 7 1
     8  9 8 2
     9 10 6 1
    10 10 9 1
    11 11 10 1
    12 12 11 ar
    13 13 12 ar
    14 14 13 ar
    15 15 14 ar
    16 16 11 ar
    17 16 15 ar
    18 17 3 1
    19 17 16 1
    20 18 3 1
    21 19 18 ar
    22 20 19 ar
    23 21 20 ar
    24 22 21 ar
    25 23 18 ar
    26 23 22 ar
    27 24 22 1
    28 25 1 1
    29 26 1 1
    30 27 1 1
    31 28 2 1
    32 29 2 1
    33 30 7 1
    34 31 8 1
    35 32 9 1
    36 33 12 1
    37 34 13 1
    38 35 14 1
    39 36 15 1
    40 37 19 1
    41 38 20 1
    42 39 21 1
    43 40 23 1
    44 41 24 1
    45 42 24 1
    46 43 24 1
@<TRIPOS>SUBSTRUCTURE
1     ****    1
@<TRIPOS>MOLECULE
ZINC00024612
31 33 1 0 0 
SMALL
USER_CHARGES


@<TRIPOS>ATOM
      1 C1          3.4210   -4.0910   -1.4510 C.2     1     ****    0.4030 
      2 N1          3.1840   -5.3770   -1.6160 N.2     1     ****   -0.5840 
      3 C2          3.2210   -5.8830   -0.3500 C.2     1     ****    0.1730 
      4 C3          3.0300   -7.2430    0.0780 C.2     1     ****    0.6510 
      5 O1          2.7950   -8.1750   -0.6810 O.2     1     ****   -0.5970 
      6 N2          3.1480   -7.3570    1.4660 N.am    1     ****   -0.5100 
      7 C4          3.4190   -6.2920    2.3440 C.2     1     ****    0.6800 
      8 N3          3.5920   -5.0580    1.9320 N.2     1     ****   -0.6770 
      9 C5          3.4820   -4.9120    0.5910 C.2     1     ****    0.1220 
     10 N4          3.6070   -3.7560   -0.1290 N.pl3   1     ****   -0.2190 
     11 C6          3.8900   -2.4110    0.3440 C.3     1     ****    0.2590 
     12 C7          5.3410   -2.2100    0.7890 C.3     1     ****   -0.1060 
     13 C8          5.2460   -2.1420    2.2960 C.3     1     ****   -0.0980 
     14 C9          3.8530   -1.5650    2.4890 C.3     1     ****    0.1360 
     15 O2          3.0420   -2.1160    1.4550 O.3     1     ****   -0.4180 
     16 C10         3.2620   -1.9140    3.8490 C.3     1     ****    0.1200 
     17 O3          2.0660   -1.1650    4.0430 O.3     1     ****   -0.6070 
     18 N5          3.4940   -6.6220    3.6680 N.pl3   1     ****   -0.8950 
     19 H1          3.0270   -8.2820    1.8630 H       1     ****    0.3340 
     20 H2          1.6990   -1.4310    4.9030 H       1     ****    0.4030 
     21 H3          3.3620   -7.5720    3.9940 H       1     ****    0.4110 
     22 H4          3.6850   -5.9110    4.3650 H       1     ****    0.4290 
     23 H5          3.4700   -3.3580   -2.2460 H       1     ****    0.0680 
     24 H6          3.6880   -1.7270   -0.4960 H       1     ****    0.0820 
     25 H7          6.0320   -2.9820    0.4360 H       1     ****    0.0820 
     26 H8          5.7050   -1.2470    0.4090 H       1     ****    0.0600 
     27 H9          5.3230   -3.1490    2.7190 H       1     ****    0.0660 
     28 H10         6.0280   -1.5260    2.7500 H       1     ****    0.0590 
     29 H11         3.9070   -0.4680    2.3920 H       1     ****    0.0880 
     30 H12         3.0060   -2.9760    3.9120 H       1     ****    0.0530 
     31 H13         3.9570   -1.6570    4.6550 H       1     ****    0.0320 
@<TRIPOS>BOND
     1  2 1 2
     2  3 2 1
     3  4 3 1
     4  5 4 2
     5  6 4 1
     6  7 6 1
     7  8 7 2
     8  9 3 ar
     9  9 8 1
    10 10 1 1
    11 10 9 1
    12 11 10 1
    13 12 11 1
    14 13 12 1
    15 14 13 1
    16 15 11 1
    17 15 14 1
    18 16 14 1
    19 17 16 1
    20 18 7 1
    21 19 6 1
    22 20 17 1
    23 21 18 1
    24 22 18 1
    25 23 1 1
    26 24 11 1
    27 25 12 1
    28 26 12 1
    29 27 13 1
    30 28 13 1
    31 29 14 1
    32 30 16 1
    33 31 16 1
@<TRIPOS>SUBSTRUCTURE
1     ****    1
@<TRIPOS>MOLECULE
ZINC00025174
31 33 1 0 0 
SMALL
USER_CHARGES


@<TRIPOS>ATOM
      1 C1          7.2550   -8.1960    2.9010 C.3     1     ****    0.0360 
      2 N1          6.2440   -8.1970    1.8750 N.pl3   1     ****   -0.2640 
      3 C2          5.8430   -9.2730    1.1340 C.2     1     ****    0.3980 
      4 N2          4.8980   -8.9530    0.2750 N.2     1     ****   -0.5420 
      5 C3          4.6790   -7.6070    0.4700 C.ar    1     ****   -0.2330 
      6 C4          5.5110   -7.1180    1.4660 C.ar    1     ****    0.4540 
      7 N3          5.5760   -5.8580    1.9230 N.ar    1     ****   -0.7360 
      8 C5          4.6950   -5.0740    1.2730 C.ar    1     ****    0.6860 
      9 N4          3.8280   -5.4110    0.2890 N.ar    1     ****   -0.7970 
     10 C6          3.7930   -6.7070   -0.1490 C.ar    1     ****    0.7640 
     11 N5          2.9350   -7.1250   -1.1490 N.pl3   1     ****   -0.8650 
     12 C7          2.0250   -6.1960   -1.7830 C.3     1     ****    0.2700 
     13 C8          1.2070   -6.9050   -2.8330 C.ar    1     ****   -0.1180 
     14 C9         -0.0100   -7.5140   -2.4940 C.ar    1     ****   -0.1100 
     15 C10        -0.7550   -8.1890   -3.4620 C.ar    1     ****   -0.1330 
     16 C11        -0.2890   -8.2690   -4.7730 C.ar    1     ****   -0.1190 
     17 C12         0.9240   -7.6760   -5.1180 C.ar    1     ****   -0.1330 
     18 C13         1.6720   -6.9990   -4.1520 C.ar    1     ****   -0.1100 
     19 H1          2.9560   -8.0980   -1.4300 H       1     ****    0.4630 
     20 H2          7.6690   -9.2020    3.0080 H       1     ****    0.0510 
     21 H3          8.0450   -7.5000    2.6080 H       1     ****    0.0600 
     22 H4          6.7950   -7.8830    3.8410 H       1     ****    0.0600 
     23 H5          6.2680  -10.2600    1.2590 H       1     ****    0.0710 
     24 H6          4.6760   -4.0330    1.5760 H       1     ****    0.0500 
     25 H7          1.3530   -5.7470   -1.0410 H       1     ****    0.0600 
     26 H8          2.5790   -5.3720   -2.2500 H       1     ****    0.0610 
     27 H9         -0.3830   -7.4660   -1.4740 H       1     ****    0.1380 
     28 H10        -1.6980   -8.6560   -3.1920 H       1     ****    0.1350 
     29 H11        -0.8690   -8.7960   -5.5250 H       1     ****    0.1330 
     30 H12         1.2900   -7.7420   -6.1380 H       1     ****    0.1350 
     31 H13         2.6190   -6.5470   -4.4340 H       1     ****    0.1380 
@<TRIPOS>BOND
     1  2 1 1
     2  3 2 1
     3  4 3 2
     4  5 4 1
     5  6 2 1
     6  6 5 ar
     7  7 6 ar
     8  8 7 ar
     9  9 8 ar
    10 10 5 ar
    11 10 9 ar
    12 11 10 1
    13 12 11 1
    14 13 12 1
    15 14 13 ar
    16 15 14 ar
    17 16 15 ar
    18 17 16 ar
    19 18 13 ar
    20 18 17 ar
    21 19 11 1
    22 20 1 1
    23 21 1 1
    24 22 1 1
    25 23 3 1
    26 24 8 1
    27 25 12 1
    28 26 12 1
    29 27 14 1
    30 28 15 1
    31 29 16 1
    32 30 17 1
    33 31 18 1
@<TRIPOS>SUBSTRUCTURE
1     ****    1
@<TRIPOS>MOLECULE
ZINC00027263
39 41 1 0 0 
SMALL
USER_CHARGES


@<TRIPOS>ATOM
      1 C1          3.0430   -8.2460   -2.2770 C.ar    1     ****   -0.2140 
      2 C2          2.7390   -7.2250   -1.3830 C.ar    1     ****   -0.0440 
      3 C3          3.4990   -7.0790   -0.2220 C.ar    1     ****   -0.2450 
      4 C4          4.5340   -7.9640   -0.0050 C.ar    1     ****    0.3710 
      5 N1          4.8560   -8.9690   -0.8560 N.ar    1     ****   -0.6130 
      6 C5          4.1020   -9.0840   -1.9710 C.ar    1     ****    0.4210 
      7 C6          5.3690   -7.8630    1.1970 C.2     1     ****    0.4750 
      8 O1          6.2860   -8.6630    1.3690 O.2     1     ****   -0.4700 
      9 C7          5.0920   -6.7780    2.2060 C.2     1     ****    0.0900 
     10 C8          4.0730   -5.9310    1.9610 C.2     1     ****   -0.1260 
     11 C9          3.2110   -6.0170    0.7450 C.2     1     ****    0.5920 
     12 O2          2.2870   -5.2380    0.5380 O.2     1     ****   -0.4770 
     13 CL1         3.6320   -4.6360    3.0280 Cl      1     ****   -0.0830 
     14 N2          5.9770   -6.8320    3.2740 N.3     1     ****   -0.7460 
     15 C10         6.0790   -5.9950    4.4520 C.3     1     ****    0.1910 
     16 C11         7.2430   -6.4640    5.3260 C.3     1     ****    0.0860 
     17 C12         8.8310   -5.7580    7.1260 C.3     1     ****    0.0710 
     18 C13         9.0330   -4.7500    8.2470 C.3     1     ****    0.0980 
     19 O3          7.9950   -4.8680    9.2210 O.3     1     ****   -0.3690 
     20 C14         6.7180   -4.5850    8.6490 C.3     1     ****    0.0980 
     21 C15         6.3880   -5.5810    7.5460 C.3     1     ****    0.0670 
     22 H1          6.6510   -7.5930    3.1990 H       1     ****    0.4400 
     23 H2          2.4680   -8.3810   -3.1860 H       1     ****    0.1690 
     24 H3          1.9120   -6.5550   -1.6030 H       1     ****    0.1780 
     25 H4          4.3800   -9.8960   -2.6350 H       1     ****    0.0480 
     26 H5          5.1440   -6.0540    5.0170 H       1     ****    0.0550 
     27 H6          6.2510   -4.9550    4.1530 H       1     ****    0.0800 
     28 H7          8.1680   -6.4770    4.7380 H       1     ****    0.1180 
     29 H8          7.0740   -7.4670    5.7360 H       1     ****    0.1090 
     30 H9          8.8280   -6.7870    7.5030 H       1     ****    0.1180 
     31 H10         9.5910   -5.6390    6.3480 H       1     ****    0.1130 
     32 H11         9.9850   -4.9450    8.7520 H       1     ****    0.1330 
     33 H12         9.0650   -3.7230    7.8660 H       1     ****    0.0680 
     34 H13         5.9730   -4.6590    9.4480 H       1     ****    0.1320 
     35 H14         6.7020   -3.5530    8.2790 H       1     ****    0.0680 
     36 H15         5.4340   -5.3290    7.0750 H       1     ****    0.1130 
     37 H16         6.3680   -6.6090    7.9230 H       1     ****    0.1170 
     38 N3          7.4730   -5.5170    6.4880 N.4     1     ****   -0.6800 
     39 H17         7.4870   -4.5610    6.1070 H       1     ****    0.4490 
@<TRIPOS>BOND
     1  2 1 ar
     2  3 2 ar
     3  4 3 ar
     4  5 4 ar
     5  6 1 ar
     6  6 5 ar
     7  7 4 1
     8  8 7 2
     9  9 7 1
    10 10 9 2
    11 11 3 1
    12 11 10 1
    13 12 11 2
    14 13 10 1
    15 14 9 1
    16 15 14 1
    17 16 15 1
    18 18 17 1
    19 19 18 1
    20 20 19 1
    21 21 20 1
    22 22 14 1
    23 23 1 1
    24 24 2 1
    25 25 6 1
    26 26 15 1
    27 27 15 1
    28 28 16 1
    29 29 16 1
    30 30 17 1
    31 31 17 1
    32 32 18 1
    33 33 18 1
    34 34 20 1
    35 35 20 1
    36 36 21 1
    37 37 21 1
    38 38 16 1
    39 38 17 1
    40 38 21 1
    41 39 38 1
@<TRIPOS>SUBSTRUCTURE
1     ****    1
@<TRIPOS>MOLECULE
ZINC00027264
39 41 1 0 0 
SMALL
USER_CHARGES


@<TRIPOS>ATOM
      1 C1          1.1060   -6.3260   -6.5940 C.ar    1     ****   -0.2320 
      2 C2          1.6940   -5.2430   -5.9470 C.ar    1     ****   -0.0380 
      3 C3          1.7400   -5.2130   -4.5510 C.ar    1     ****   -0.2750 
      4 C4          1.1890   -6.2790   -3.8660 C.ar    1     ****    0.3980 
      5 N1          0.6100   -7.3470   -4.4640 N.ar    1     ****   -0.6120 
      6 C5          0.5830   -7.3440   -5.8150 C.ar    1     ****    0.4390 
      7 C6          1.2040   -6.3090   -2.4000 C.2     1     ****    0.4710 
      8 O1          0.7130   -7.2560   -1.7970 O.2     1     ****   -0.4170 
      9 C7          1.8310   -5.1570   -1.7050 C.2     1     ****   -0.1050 
     10 C8          2.3790   -4.1000   -2.3370 C.2     1     ****    0.0570 
     11 C9          2.3560   -4.0800   -3.8410 C.2     1     ****    0.6080 
     12 O2          2.8270   -3.1600   -4.5000 O.2     1     ****   -0.5550 
     13 N2          2.9600   -3.0360   -1.6570 N.3     1     ****   -0.7330 
     14 C10         3.5850   -1.8380   -2.1830 C.3     1     ****    0.1870 
     15 C11         4.0930   -0.9650   -1.0350 C.3     1     ****    0.0870 
     16 C12         5.7000    0.8610   -0.4470 C.3     1     ****    0.0700 
     17 C13         6.5120    2.0060   -1.0330 C.3     1     ****    0.0990 
     18 O3          5.6530    2.9700   -1.6420 O.3     1     ****   -0.3690 
     19 C14         4.9230    2.3960   -2.7270 C.3     1     ****    0.0990 
     20 C15         4.0250    1.2690   -2.2370 C.3     1     ****    0.0670 
     21 CL1         1.8210   -5.2500    0.0310 Cl      1     ****   -0.0440 
     22 H1          2.9270   -3.1280   -0.6430 H       1     ****    0.4190 
     23 H2          1.0600   -6.3710   -7.6760 H       1     ****    0.1670 
     24 H3          2.1100   -4.4350   -6.5430 H       1     ****    0.1660 
     25 H4          0.1140   -8.2100   -6.2700 H       1     ****    0.0500 
     26 H5          2.8520   -1.2830   -2.7770 H       1     ****    0.0550 
     27 H6          4.4270   -2.1130   -2.8280 H       1     ****    0.0930 
     28 H7          4.7710   -1.5460   -0.3990 H       1     ****    0.1160 
     29 H8          3.2760   -0.5790   -0.4150 H       1     ****    0.1040 
     30 H9          4.9900    1.2140    0.3080 H       1     ****    0.1160 
     31 H10         6.3530    0.0910   -0.0240 H       1     ****    0.1120 
     32 H11         7.0660    2.5120   -0.2360 H       1     ****    0.1320 
     33 H12         7.2430    1.6480   -1.7670 H       1     ****    0.0680 
     34 H13         4.3120    3.1880   -3.1710 H       1     ****    0.1310 
     35 H14         5.6230    2.0480   -3.4970 H       1     ****    0.0680 
     36 H15         3.5090    0.7970   -3.0770 H       1     ****    0.1160 
     37 H16         3.3030    1.6230   -1.4940 H       1     ****    0.1150 
     38 N3          4.8840    0.2200   -1.5560 N.4     1     ****   -0.6790 
     39 H17         5.5530   -0.1400   -2.2510 H       1     ****    0.4500 
@<TRIPOS>BOND
     1  2 1 ar
     2  3 2 ar
     3  4 3 ar
     4  5 4 ar
     5  6 1 ar
     6  6 5 ar
     7  7 4 1
     8  8 7 2
     9  9 7 1
    10 10 9 2
    11 11 3 1
    12 11 10 1
    13 12 11 2
    14 13 10 1
    15 14 13 1
    16 15 14 1
    17 17 16 1
    18 18 17 1
    19 19 18 1
    20 20 19 1
    21 21 9 1
    22 22 13 1
    23 23 1 1
    24 24 2 1
    25 25 6 1
    26 26 14 1
    27 27 14 1
    28 28 15 1
    29 29 15 1
    30 30 16 1
    31 31 16 1
    32 32 17 1
    33 33 17 1
    34 34 19 1
    35 35 19 1
    36 36 20 1
    37 37 20 1
    38 38 15 1
    39 38 16 1
    40 38 20 1
    41 39 38 1
@<TRIPOS>SUBSTRUCTURE
1     ****    1
@<TRIPOS>MOLECULE
ZINC00027631
50 52 1 0 0 
SMALL
USER_CHARGES


@<TRIPOS>ATOM
      1 C1          5.4230   -9.7600    1.5160 C.3     1     ****   -0.1010 
      2 C2          4.4410   -9.4910    0.3830 C.3     1     ****   -0.1070 
      3 C3          3.5100   -8.3320    0.7090 C.3     1     ****    0.1150 
      4 C4          5.2560   -7.3390    2.2070 C.3     1     ****    0.1080 
      5 C5          6.1910   -8.4970    1.8870 C.3     1     ****   -0.1070 
      6 C6          3.4320   -5.8980    1.2310 C.3     1     ****    0.3120 
      7 N1          4.1880   -4.6530    1.2650 N.am    1     ****   -0.4600 
      8 C7          4.8870   -4.1720    0.0870 C.3     1     ****    0.0670 
      9 C8          5.3450   -2.7740    0.4580 C.3     1     ****    0.0690 
     10 N2          5.1570   -2.6980    1.8920 N.am    1     ****   -0.4530 
     11 C9          4.3880   -3.7860    2.3620 C.2     1     ****    0.5210 
     12 S1          3.8310   -3.9970    3.9220 S.2     1     ****   -0.4510 
     13 C10         5.5580   -1.5090    2.6270 C.3     1     ****    0.3070 
     14 C11         6.8320   -0.7020    4.6120 C.3     1     ****    0.1170 
     15 C12         7.8300   -1.1210    5.6820 C.3     1     ****   -0.1050 
     16 C13         9.1600   -1.5500    5.0740 C.3     1     ****   -0.1000 
     17 C14         8.9580   -2.6370    4.0250 C.3     1     ****   -0.1050 
     18 C15         7.9540   -2.2170    2.9610 C.3     1     ****    0.1140 
     19 H1          6.1240  -10.5490    1.2210 H       1     ****    0.1030 
     20 H2          4.8770  -10.1280    2.3940 H       1     ****    0.0740 
     21 H3          4.9970   -9.2680   -0.5370 H       1     ****    0.0730 
     22 H4          3.8500  -10.3920    0.1860 H       1     ****    0.1150 
     23 H5          2.8830   -8.0920   -0.1560 H       1     ****    0.1000 
     24 H6          2.8740   -8.5490    1.5750 H       1     ****    0.1080 
     25 H7          5.8370   -6.4270    2.3680 H       1     ****    0.0930 
     26 H8          4.6370   -7.5450    3.0870 H       1     ****    0.1140 
     27 H9          6.8330   -8.6990    2.7520 H       1     ****    0.1080 
     28 H10         6.8530   -8.2170    1.0580 H       1     ****    0.0680 
     29 H11         2.7490   -5.8500    0.3750 H       1     ****    0.1260 
     30 H12         2.8560   -6.0560    2.1460 H       1     ****    0.1470 
     31 H13         5.7420   -4.8280   -0.1050 H       1     ****    0.0850 
     32 H14         4.2220   -4.1730   -0.7820 H       1     ****    0.1010 
     33 H15         6.3900   -2.5930    0.1940 H       1     ****    0.1000 
     34 H16         4.7130   -2.0110   -0.0110 H       1     ****    0.0970 
     35 H17         5.9300   -0.7350    1.9470 H       1     ****    0.1270 
     36 H18         4.6970   -1.1350    3.1900 H       1     ****    0.1150 
     37 H19         7.1720    0.1780    4.0560 H       1     ****    0.1010 
     38 H20         5.8560   -0.4970    5.0630 H       1     ****    0.1040 
     39 H21         7.9950   -0.2890    6.3760 H       1     ****    0.1130 
     40 H22         7.4140   -1.9480    6.2700 H       1     ****    0.0760 
     41 H23         9.6490   -0.6830    4.6130 H       1     ****    0.0720 
     42 H24         9.8290   -1.9140    5.8620 H       1     ****    0.1020 
     43 H25         9.9170   -2.8740    3.5510 H       1     ****    0.1050 
     44 H26         8.6100   -3.5560    4.5150 H       1     ****    0.0710 
     45 H27         7.7550   -3.0530    2.2840 H       1     ****    0.0890 
     46 H28         8.3050   -1.3530    2.3850 H       1     ****    0.0990 
     47 N3          4.3270   -7.1010    1.0370 N.4     1     ****   -0.7220 
     48 H29         4.9100   -6.9000    0.2150 H       1     ****    0.4400 
     49 N4          6.6500   -1.8290    3.6200 N.4     1     ****   -0.7220 
     50 H30         6.3150   -2.6470    4.1470 H       1     ****    0.4800 
@<TRIPOS>BOND
     1  2 1 1
     2  3 2 1
     3  5 1 1
     4  5 4 1
     5  7 6 1
     6  8 7 1
     7  9 8 1
     8 10 9 1
     9 11 7 1
    10 11 10 1
    11 12 11 2
    12 13 10 1
    13 15 14 1
    14 16 15 1
    15 17 16 1
    16 18 17 1
    17 19 1 1
    18 20 1 1
    19 21 2 1
    20 22 2 1
    21 23 3 1
    22 24 3 1
    23 25 4 1
    24 26 4 1
    25 27 5 1
    26 28 5 1
    27 29 6 1
    28 30 6 1
    29 31 8 1
    30 32 8 1
    31 33 9 1
    32 34 9 1
    33 35 13 1
    34 36 13 1
    35 37 14 1
    36 38 14 1
    37 39 15 1
    38 40 15 1
    39 41 16 1
    40 42 16 1
    41 43 17 1
    42 44 17 1
    43 45 18 1
    44 46 18 1
    45 47 3 1
    46 47 4 1
    47 47 6 1
    48 48 47 1
    49 49 13 1
    50 49 14 1
    51 49 18 1
    52 50 49 1
@<TRIPOS>SUBSTRUCTURE
1     ****    1
@<TRIPOS>MOLECULE
ZINC00027759
35 36 1 0 0 
SMALL
USER_CHARGES


@<TRIPOS>ATOM
      1 C1          4.8260   -7.4990    1.2480 C.3     1     ****    0.0330 
      2 C2          4.9550   -8.9870    0.9530 C.3     1     ****    0.1150 
      3 O1          5.9070   -9.1980   -0.0930 O.3     1     ****   -0.4040 
      4 C3          5.4810   -8.5650   -1.3010 C.3     1     ****    0.1170 
      5 C4          5.3430   -7.0560   -1.1090 C.3     1     ****    0.0430 
      6 N1          4.4610   -6.7540    0.0300 N.am    1     ****   -0.3860 
      7 C5          3.4150   -5.8210   -0.0230 C.2     1     ****    0.4140 
      8 S1          2.1340   -5.7650    1.0820 S.2     1     ****   -0.4910 
      9 C6          3.4360   -4.8360   -1.2040 C.3     1     ****   -0.1950 
     10 C7          2.8770   -3.4280   -0.9610 C.2     1     ****    0.4420 
     11 S2          1.4230   -3.0360   -1.7370 S.2     1     ****   -0.4880 
     12 N2          3.6160   -2.5660   -0.1410 N.am    1     ****   -0.3690 
     13 C8          4.9550   -2.8750    0.3890 C.3     1     ****    0.0430 
     14 C9          5.0310   -2.5560    1.8780 C.3     1     ****    0.1000 
     15 O2          4.6700   -1.1940    2.1170 O.3     1     ****   -0.4100 
     16 C10         3.3300   -0.9400    1.6900 C.3     1     ****    0.1060 
     17 C11         3.1880   -1.1950    0.1920 C.3     1     ****    0.0290 
     18 H1          5.7970   -7.0990    1.5640 H       1     ****    0.0590 
     19 H2          4.1260   -7.3350    2.0690 H       1     ****    0.1100 
     20 H3          5.3120   -9.5170    1.8420 H       1     ****    0.0840 
     21 H4          3.9920   -9.4250    0.6640 H       1     ****    0.0480 
     22 H5          6.2270   -8.7760   -2.0730 H       1     ****    0.0810 
     23 H6          4.5320   -9.0100   -1.6240 H       1     ****    0.0460 
     24 H7          6.3160   -6.6090   -0.8780 H       1     ****    0.0510 
     25 H8          4.9700   -6.6260   -2.0410 H       1     ****    0.0640 
     26 H9          4.4590   -4.6920   -1.5680 H       1     ****    0.0720 
     27 H10         2.8980   -5.3280   -2.0260 H       1     ****    0.1180 
     28 H11         5.2520   -3.9090    0.2230 H       1     ****    0.0560 
     29 H12         5.6560   -2.2380   -0.1650 H       1     ****    0.0630 
     30 H13         4.3740   -3.2120    2.4620 H       1     ****    0.0690 
     31 H14         6.0540   -2.7000    2.2400 H       1     ****    0.0740 
     32 H15         2.6420   -1.5680    2.2680 H       1     ****    0.0570 
     33 H16         3.0990    0.1060    1.9150 H       1     ****    0.0770 
     34 H17         3.8450   -0.5210   -0.3690 H       1     ****    0.0630 
     35 H18         2.1590   -0.9920   -0.1110 H       1     ****    0.1130 
@<TRIPOS>BOND
     1  2 1 1
     2  3 2 1
     3  4 3 1
     4  5 4 1
     5  6 1 1
     6  6 5 1
     7  7 6 1
     8  8 7 2
     9  9 7 1
    10 10 9 1
    11 11 10 2
    12 12 10 1
    13 13 12 1
    14 14 13 1
    15 15 14 1
    16 16 15 1
    17 17 12 1
    18 17 16 1
    19 18 1 1
    20 19 1 1
    21 20 2 1
    22 21 2 1
    23 22 4 1
    24 23 4 1
    25 24 5 1
    26 25 5 1
    27 26 9 1
    28 27 9 1
    29 28 13 1
    30 29 13 1
    31 30 14 1
    32 31 14 1
    33 32 16 1
    34 33 16 1
    35 34 17 1
    36 35 17 1
@<TRIPOS>SUBSTRUCTURE
1     ****    1
@<TRIPOS>MOLECULE
ZINC00028113
34 36 1 0 0 
SMALL
USER_CHARGES


@<TRIPOS>ATOM
      1 C1          6.3450   -9.4320   -1.0680 C.ar    1     ****   -0.1340 
      2 C2          7.0980   -8.6030   -0.2520 C.ar    1     ****   -0.1570 
      3 C3          6.5130   -8.0010    0.8660 C.ar    1     ****   -0.0900 
      4 C4          5.1500   -8.2070    1.2090 C.ar    1     ****   -0.0440 
      5 C5          4.4020   -9.0630    0.3540 C.ar    1     ****   -0.0260 
      6 C6          5.0060   -9.6600   -0.7660 C.ar    1     ****   -0.1320 
      7 C7          3.0530   -9.3190    0.6210 C.ar    1     ****   -0.1630 
      8 C8          2.4250   -8.7450    1.7190 C.ar    1     ****   -0.1020 
      9 C9          3.1370   -7.9050    2.5700 C.ar    1     ****   -0.1500 
     10 C10         4.4910   -7.6220    2.3400 C.ar    1     ****    0.0830 
     11 N1          5.2250   -6.7650    3.2080 N.am    1     ****   -0.4670 
     12 C11         4.7700   -6.1040    4.3390 C.2     1     ****    0.7050 
     13 O1          3.6530   -6.1000    4.8390 O.2     1     ****   -0.6110 
     14 C12         5.8250   -5.3150    5.0120 C.ar    1     ****   -0.1180 
     15 C13         6.9020   -6.0160    5.5740 C.ar    1     ****   -0.1150 
     16 C14         7.8900   -5.3280    6.2740 C.ar    1     ****   -0.1640 
     17 C15         7.8020   -3.9460    6.4220 C.ar    1     ****   -0.1430 
     18 C16         6.7280   -3.2480    5.8650 C.ar    1     ****   -0.1140 
     19 C17         5.7250   -3.9200    5.1470 C.ar    1     ****   -0.0920 
     20 C18         4.6130   -3.1230    4.5300 C.2     1     ****    0.9110 
     21 O2          4.3080   -3.3940    3.3280 O.co2   1     ****   -0.8460 
     22 H1          6.1950   -6.6040    2.9640 H       1     ****    0.3620 
     23 H2          6.7960   -9.9010   -1.9370 H       1     ****    0.1170 
     24 H3          8.1440   -8.4190   -0.4800 H       1     ****    0.1210 
     25 H4          7.1580   -7.3630    1.4630 H       1     ****    0.1470 
     26 H5          4.4320  -10.3140   -1.4200 H       1     ****    0.1190 
     27 H6          2.4720   -9.9710   -0.0280 H       1     ****    0.1180 
     28 H7          1.3770   -8.9510    1.9140 H       1     ****    0.1230 
     29 H8          2.5920   -7.4880    3.4090 H       1     ****    0.1700 
     30 H9          6.9700   -7.0980    5.4850 H       1     ****    0.1230 
     31 H10         8.7240   -5.8690    6.7120 H       1     ****    0.1100 
     32 H11         8.5700   -3.4080    6.9710 H       1     ****    0.1100 
     33 H12         6.6840   -2.1670    5.9850 H       1     ****    0.1510 
     34 O3          4.0870   -2.2240    5.2560 O.co2   1     ****   -0.8010 
@<TRIPOS>BOND
     1  2 1 ar
     2  3 2 ar
     3  4 3 ar
     4  5 4 ar
     5  6 1 ar
     6  6 5 ar
     7  7 5 ar
     8  8 7 ar
     9  9 8 ar
    10 10 4 ar
    11 10 9 ar
    12 11 10 1
    13 12 11 1
    14 13 12 2
    15 14 12 1
    16 15 14 ar
    17 16 15 ar
    18 17 16 ar
    19 18 17 ar
    20 19 14 ar
    21 19 18 ar
    22 20 19 1
    23 21 20 1
    24 22 11 1
    25 23 1 1
    26 24 2 1
    27 25 3 1
    28 26 6 1
    29 27 7 1
    30 28 8 1
    31 29 9 1
    32 30 15 1
    33 31 16 1
    34 32 17 1
    35 33 18 1
    36 34 20 2
@<TRIPOS>SUBSTRUCTURE
1     ****    1
@<TRIPOS>MOLECULE
ZINC00028114
26 27 1 0 0 
SMALL
USER_CHARGES


@<TRIPOS>ATOM
      1 C1          5.1690   -9.0680   -2.4560 C.3     1     ****   -0.1010 
      2 C2          5.6380   -8.2690   -1.2560 C.3     1     ****    0.1410 
      3 O1          4.7260   -7.1780   -1.0600 O.3     1     ****   -0.4550 
      4 C3          5.0020   -6.3620   -0.0070 C.2     1     ****    0.6530 
      5 O2          5.9500   -6.4820    0.7560 O.2     1     ****   -0.5020 
      6 C4          4.0050   -5.2560    0.0930 C.2     1     ****   -0.2500 
      7 C5          2.7770   -5.4280   -0.4210 C.2     1     ****    0.0650 
      8 C6          1.7650   -4.3880   -0.3220 C.ar    1     ****   -0.1800 
      9 C7          0.4850   -4.5370   -0.8610 C.ar    1     ****   -0.0590 
     10 C8         -0.4520   -3.5070   -0.7360 C.ar    1     ****   -0.1640 
     11 C9         -0.1150   -2.3260   -0.0710 C.ar    1     ****   -0.0690 
     12 C10         1.1590   -2.1700    0.4700 C.ar    1     ****   -0.1540 
     13 C11         2.0810   -3.2060    0.3350 C.ar    1     ****    0.1720 
     14 O3          3.3590   -3.0210    0.8910 O.3     1     ****   -0.3240 
     15 C12         4.3530   -3.9920    0.7970 C.2     1     ****    0.7350 
     16 O4          5.4670   -3.7930    1.2710 O.2     1     ****   -0.5250 
     17 H1          5.8360   -9.9140   -2.6460 H       1     ****    0.0500 
     18 H2          4.1540   -9.4460   -2.2940 H       1     ****    0.0450 
     19 H3          5.1350   -8.4370   -3.3500 H       1     ****    0.0490 
     20 H4          5.6460   -8.9050   -0.3640 H       1     ****    0.0530 
     21 H5          6.6440   -7.8760   -1.4390 H       1     ****    0.0580 
     22 H6          2.4790   -6.3470   -0.9170 H       1     ****    0.1680 
     23 H7          0.2020   -5.4490   -1.3820 H       1     ****    0.1430 
     24 H8         -1.4470   -3.6270   -1.1570 H       1     ****    0.1440 
     25 H9         -0.8480   -1.5290    0.0240 H       1     ****    0.1450 
     26 H10         1.4240   -1.2540    0.9870 H       1     ****    0.1640 
@<TRIPOS>BOND
     1  2 1 1
     2  3 2 1
     3  4 3 1
     4  5 4 2
     5  6 4 1
     6  7 6 2
     7  8 7 1
     8  9 8 ar
     9 10 9 ar
    10 11 10 ar
    11 12 11 ar
    12 13 8 ar
    13 13 12 ar
    14 14 13 1
    15 15 6 1
    16 15 14 1
    17 16 15 2
    18 17 1 1
    19 18 1 1
    20 19 1 1
    21 20 2 1
    22 21 2 1
    23 22 7 1
    24 23 9 1
    25 24 10 1
    26 25 11 1
    27 26 12 1
@<TRIPOS>SUBSTRUCTURE
1     ****    1
@<TRIPOS>MOLECULE
ZINC00028143
34 36 1 0 0 
SMALL
USER_CHARGES


@<TRIPOS>ATOM
      1 C1          2.1690    7.2940   14.7730 C.ar    1     ****   -0.1530 
      2 C2          3.2670    7.6520   13.9950 C.ar    1     ****   -0.1440 
      3 C3          3.0790    8.3090   12.7780 C.ar    1     ****   -0.0980 
      4 C4          1.7880    8.6170   12.3280 C.ar    1     ****   -0.0440 
      5 C5          0.6890    8.2500   13.1200 C.ar    1     ****   -0.1380 
      6 C6          0.8800    7.5930   14.3360 C.ar    1     ****   -0.1470 
      7 C7          1.5770    9.3310   11.0130 C.3     1     ****   -0.0420 
      8 C8          1.1820   10.8150   11.1760 C.3     1     ****   -0.0270 
      9 C9          2.3380   11.7650   11.5700 C.2     1     ****    0.9190 
     10 O1          3.5090   11.3040   11.4870 O.co2   1     ****   -0.8150 
     11 N1          0.5630   11.2910    9.9310 N.am    1     ****   -0.4630 
     12 C10         1.2010   11.3680    8.7100 C.2     1     ****    0.7240 
     13 O2          2.3370   11.0700    8.3910 O.2     1     ****   -0.5600 
     14 C11         0.2140   11.9030    7.7740 C.ar    1     ****   -0.1320 
     15 C12         0.3270   12.1810    6.4270 C.ar    1     ****   -0.0790 
     16 C13        -0.8040   12.6930    5.7850 C.ar    1     ****   -0.1330 
     17 C14        -2.0030   12.9110    6.4930 C.ar    1     ****   -0.1350 
     18 C15        -2.0940   12.6210    7.8580 C.ar    1     ****   -0.0790 
     19 C16        -0.9640   12.1170    8.4700 C.ar    1     ****   -0.1310 
     20 C17        -0.7460   11.7210    9.8600 C.2     1     ****    0.7250 
     21 O3         -1.6030   11.7790   10.7220 O.2     1     ****   -0.5950 
     22 H1          2.3170    6.7830   15.7200 H       1     ****    0.1080 
     23 H2          4.2730    7.4210   14.3350 H       1     ****    0.1160 
     24 H3          3.9470    8.5840   12.1840 H       1     ****    0.1760 
     25 H4         -0.3220    8.4770   12.7920 H       1     ****    0.1260 
     26 H5          0.0220    7.3150   14.9420 H       1     ****    0.1100 
     27 H6          2.4720    9.2260   10.3870 H       1     ****    0.0890 
     28 H7          0.7850    8.7930   10.4720 H       1     ****    0.0190 
     29 H8          0.4520   10.8620   12.0040 H       1     ****    0.0720 
     30 H9          1.2500   12.0130    5.8850 H       1     ****    0.1500 
     31 H10        -0.7610   12.9270    4.7240 H       1     ****    0.1250 
     32 H11        -2.8680   13.3100    5.9690 H       1     ****    0.1250 
     33 H12        -3.0140   12.7880    8.4050 H       1     ****    0.1470 
     34 O4          1.9590   12.9180   11.9340 O.co2   1     ****   -0.8160 
@<TRIPOS>BOND
     1  2 1 ar
     2  3 2 ar
     3  4 3 ar
     4  5 4 ar
     5  6 1 ar
     6  6 5 ar
     7  7 4 1
     8  8 7 1
     9  9 8 1
    10 10 9 1
    11 11 8 1
    12 12 11 1
    13 13 12 2
    14 14 12 1
    15 15 14 ar
    16 16 15 ar
    17 17 16 ar
    18 18 17 ar
    19 19 14 ar
    20 19 18 ar
    21 20 11 1
    22 20 19 1
    23 21 20 2
    24 22 1 1
    25 23 2 1
    26 24 3 1
    27 25 5 1
    28 26 6 1
    29 27 7 1
    30 28 7 1
    31 29 8 1
    32 30 15 1
    33 31 16 1
    34 32 17 1
    35 33 18 1
    36 34 9 2
@<TRIPOS>SUBSTRUCTURE
1     ****    1
@<TRIPOS>MOLECULE
ZINC00028144
34 36 1 0 0 
SMALL
USER_CHARGES


@<TRIPOS>ATOM
      1 C1          3.1920    7.0580   14.0850 C.ar    1     ****   -0.1530 
      2 C2          1.8600    7.2840   14.4290 C.ar    1     ****   -0.1440 
      3 C3          1.0190    7.9770   13.5570 C.ar    1     ****   -0.1000 
      4 C4          1.5030    8.4530   12.3310 C.ar    1     ****   -0.0450 
      5 C5          2.8440    8.2190   11.9950 C.ar    1     ****   -0.1390 
      6 C6          3.6840    7.5250   12.8680 C.ar    1     ****   -0.1480 
      7 C7          0.5980    9.2060   11.3830 C.3     1     ****   -0.0410 
      8 C8          0.8700   10.7260   11.3520 C.3     1     ****   -0.0270 
      9 C9          0.3400   11.5150   12.5730 C.2     1     ****    0.9180 
     10 O1         -0.4540   10.9100   13.3430 O.co2   1     ****   -0.8150 
     11 N1          0.3020   11.2940   10.1210 N.am    1     ****   -0.4620 
     12 C10        -1.0400   11.3050    9.8010 C.2     1     ****    0.7230 
     13 O2         -2.0010   10.8690   10.4060 O.2     1     ****   -0.5600 
     14 C11        -1.1380   11.9750    8.5060 C.ar    1     ****   -0.1310 
     15 C12        -2.2460   12.2550    7.7330 C.ar    1     ****   -0.0790 
     16 C13        -2.0280   12.9160    6.5200 C.ar    1     ****   -0.1330 
     17 C14        -0.7260   13.2750    6.1150 C.ar    1     ****   -0.1350 
     18 C15         0.3820   12.9800    6.9160 C.ar    1     ****   -0.0780 
     19 C16         0.1410   12.3280    8.1080 C.ar    1     ****   -0.1310 
     20 C17         1.0730   11.8880    9.1440 C.2     1     ****    0.7260 
     21 O3          2.2780   12.0430    9.0780 O.2     1     ****   -0.5950 
     22 H1          3.8450    6.5190   14.7650 H       1     ****    0.1080 
     23 H2          1.4760    6.9220   15.3790 H       1     ****    0.1160 
     24 H3         -0.0160    8.1460   13.8420 H       1     ****    0.1780 
     25 H4          3.2420    8.5770   11.0480 H       1     ****    0.1250 
     26 H5          4.7210    7.3500   12.5980 H       1     ****    0.1100 
     27 H6          0.7480    8.7810   10.3800 H       1     ****    0.0210 
     28 H7         -0.4510    8.9960   11.6280 H       1     ****    0.0890 
     29 H8          1.9670   10.8540   11.3580 H       1     ****    0.0720 
     30 H9         -3.2460   11.9780    8.0460 H       1     ****    0.1500 
     31 H10        -2.8720   13.1570    5.8790 H       1     ****    0.1250 
     32 H11        -0.5840   13.7880    5.1680 H       1     ****    0.1250 
     33 H12         1.3830   13.2550    6.6070 H       1     ****    0.1470 
     34 O4          0.7760   12.7020   12.6510 O.co2   1     ****   -0.8170 
@<TRIPOS>BOND
     1  2 1 ar
     2  3 2 ar
     3  4 3 ar
     4  5 4 ar
     5  6 1 ar
     6  6 5 ar
     7  7 4 1
     8  8 7 1
     9  9 8 1
    10 10 9 1
    11 11 8 1
    12 12 11 1
    13 13 12 2
    14 14 12 1
    15 15 14 ar
    16 16 15 ar
    17 17 16 ar
    18 18 17 ar
    19 19 14 ar
    20 19 18 ar
    21 20 11 1
    22 20 19 1
    23 21 20 2
    24 22 1 1
    25 23 2 1
    26 24 3 1
    27 25 5 1
    28 26 6 1
    29 27 7 1
    30 28 7 1
    31 29 8 1
    32 30 15 1
    33 31 16 1
    34 32 17 1
    35 33 18 1
    36 34 9 2
@<TRIPOS>SUBSTRUCTURE
1     ****    1
@<TRIPOS>MOLECULE
ZINC00000071
34 36 1 0 0 
SMALL
USER_CHARGES


@<TRIPOS>ATOM
      1 C1          3.9790    0.5010   -2.4650 C.3     1     ****   -0.0910 
      2 C2          3.3920    0.7260   -3.8500 C.3     1     ****   -0.0360 
      3 C3          1.9180    0.9210   -3.7960 C.2     1     ****    0.1030 
      4 C4          0.8270    0.0940   -3.5620 C.2     1     ****   -0.2150 
      5 C5         -0.3180    0.9530   -3.5550 C.ar    1     ****   -0.0770 
      6 C6         -1.7030    0.7840   -3.3630 C.ar    1     ****   -0.0760 
      7 C7         -2.5410    1.9040   -3.4480 C.ar    1     ****   -0.1450 
      8 C8         -2.0210    3.1720   -3.7180 C.ar    1     ****   -0.1130 
      9 C9         -0.6510    3.3640   -3.9120 C.ar    1     ****   -0.1210 
     10 C10         0.1550    2.2310   -3.8200 C.ar    1     ****    0.0520 
     11 O1          1.5050    2.2100   -3.9670 O.2     1     ****   -0.1980 
     12 C11         0.8360   -1.3370   -3.3060 C.2     1     ****    0.6210 
     13 O2          0.1150   -1.8480   -2.4540 O.2     1     ****   -0.5260 
     14 C12         1.7090   -2.2200   -4.1090 C.ar    1     ****   -0.2040 
     15 C13         1.8230   -2.0520   -5.4940 C.ar    1     ****   -0.0620 
     16 C14         2.6340   -2.9150   -6.2310 C.ar    1     ****   -0.1700 
     17 C15         3.3160   -3.9430   -5.5830 C.ar    1     ****    0.1460 
     18 C16         3.1940   -4.1270   -4.2070 C.ar    1     ****   -0.2260 
     19 C17         2.3830   -3.2660   -3.4670 C.ar    1     ****   -0.0430 
     20 O3          4.1020   -4.7680   -6.3370 O.3     1     ****   -0.4930 
     21 H1          4.5070   -5.4310   -5.7520 H       1     ****    0.4230 
     22 H2          5.0650    0.3820   -2.5300 H       1     ****    0.0430 
     23 H3          3.7680    1.3480   -1.8040 H       1     ****    0.0480 
     24 H4          3.5670   -0.4000   -1.9980 H       1     ****    0.0440 
     25 H5          3.8650    1.6100   -4.2960 H       1     ****    0.0720 
     26 H6          3.6460   -0.1150   -4.5000 H       1     ****    0.0740 
     27 H7         -2.1240   -0.1960   -3.1550 H       1     ****    0.1550 
     28 H8         -3.6110    1.7830   -3.3010 H       1     ****    0.1360 
     29 H9         -2.6940    4.0240   -3.7780 H       1     ****    0.1360 
     30 H10        -0.2370    4.3440   -4.1200 H       1     ****    0.1500 
     31 H11         1.2830   -1.2640   -6.0130 H       1     ****    0.1470 
     32 H12         2.7280   -2.7840   -7.3050 H       1     ****    0.1560 
     33 H13         3.7210   -4.9310   -3.7020 H       1     ****    0.1390 
     34 H14         2.2890   -3.4150   -2.3940 H       1     ****    0.1510 
@<TRIPOS>BOND
     1  2 1 1
     2  3 2 1
     3  4 3 2
     4  5 4 1
     5  6 5 ar
     6  7 6 ar
     7  8 7 ar
     8  9 8 ar
     9 10 5 ar
    10 10 9 ar
    11 11 3 1
    12 11 10 1
    13 12 4 1
    14 13 12 2
    15 14 12 1
    16 15 14 ar
    17 16 15 ar
    18 17 16 ar
    19 18 17 ar
    20 19 14 ar
    21 19 18 ar
    22 20 17 1
    23 21 20 1
    24 22 1 1
    25 23 1 1
    26 24 1 1
    27 25 2 1
    28 26 2 1
    29 27 6 1
    30 28 7 1
    31 29 8 1
    32 30 9 1
    33 31 15 1
    34 32 16 1
    35 33 18 1
    36 34 19 1
@<TRIPOS>SUBSTRUCTURE
1     ****    1
@<TRIPOS>MOLECULE
ZINC00000111
33 34 1 0 0 
SMALL
USER_CHARGES


@<TRIPOS>ATOM
      1 C1          6.1420  -10.3450    0.6030 C.3     1     ****   -0.0910 
      2 C2          5.3940  -10.8440   -0.6290 C.3     1     ****   -0.0580 
      3 C3          3.9000  -10.4440   -0.6280 C.3     1     ****   -0.1720 
      4 C4          3.6880   -8.9460   -0.7540 C.ar    1     ****    0.0050 
      5 C5          4.2190   -8.2050   -1.8170 C.ar    1     ****   -0.1230 
      6 C6          4.0020   -6.8250   -1.9080 C.ar    1     ****   -0.1210 
      7 C7          3.2450   -6.1420   -0.9430 C.ar    1     ****   -0.0950 
      8 C8          2.7100   -6.8930    0.1160 C.ar    1     ****   -0.1230 
      9 C9          2.9250   -8.2720    0.2080 C.ar    1     ****   -0.1520 
     10 C10         3.0170   -4.6880   -1.0400 C.ar    1     ****    0.0050 
     11 C11         2.5960   -4.0960   -2.2440 C.ar    1     ****   -0.1280 
     12 C12         2.3800   -2.7190   -2.3360 C.ar    1     ****   -0.1340 
     13 C13         2.5810   -1.9050   -1.2250 C.ar    1     ****   -0.1520 
     14 C14         2.9980   -2.4680   -0.0220 C.ar    1     ****   -0.1360 
     15 C15         3.2130   -3.8460    0.0700 C.ar    1     ****   -0.1340 
     16 C16         3.1460  -11.1270   -1.7780 C.2     1     ****    0.9250 
     17 O1          3.8180  -11.4270   -2.8040 O.co2   1     ****   -0.8390 
     18 H1          7.1760  -10.7050    0.5850 H       1     ****    0.0070 
     19 H2          6.1710   -9.2510    0.6400 H       1     ****    0.0270 
     20 H3          5.6740  -10.7100    1.5220 H       1     ****    0.0170 
     21 H4          5.9110  -10.4790   -1.5240 H       1     ****    0.0510 
     22 H5          5.4700  -11.9380   -0.6530 H       1     ****    0.0410 
     23 H6          3.5170  -10.7830    0.3500 H       1     ****    0.0480 
     24 H7          4.8060   -8.6920   -2.5920 H       1     ****    0.1780 
     25 H8          4.4430   -6.2890   -2.7460 H       1     ****    0.1160 
     26 H9          2.1040   -6.4130    0.8820 H       1     ****    0.1110 
     27 H10         2.4860   -8.8170    1.0410 H       1     ****    0.1250 
     28 H11         2.4200   -4.7080   -3.1270 H       1     ****    0.1400 
     29 H12         2.0520   -2.2830   -3.2760 H       1     ****    0.1200 
     30 H13         2.4130   -0.8340   -1.2960 H       1     ****    0.1170 
     31 H14         3.1580   -1.8360    0.8470 H       1     ****    0.1170 
     32 H15         3.5480   -4.2550    1.0210 H       1     ****    0.1330 
     33 O2          1.9140  -11.3180   -1.5510 O.co2   1     ****   -0.8240 
@<TRIPOS>BOND
     1  2 1 1
     2  3 2 1
     3  4 3 1
     4  5 4 ar
     5  6 5 ar
     6  7 6 ar
     7  8 7 ar
     8  9 4 ar
     9  9 8 ar
    10 10 7 1
    11 11 10 ar
    12 12 11 ar
    13 13 12 ar
    14 14 13 ar
    15 15 10 ar
    16 15 14 ar
    17 16 3 1
    18 17 16 1
    19 18 1 1
    20 19 1 1
    21 20 1 1
    22 21 2 1
    23 22 2 1
    24 23 3 1
    25 24 5 1
    26 25 6 1
    27 26 8 1
    28 27 9 1
    29 28 11 1
    30 29 12 1
    31 30 13 1
    32 31 14 1
    33 32 15 1
    34 33 16 2
@<TRIPOS>SUBSTRUCTURE
1     ****    1
@<TRIPOS>MOLECULE
ZINC00000179
43 45 1 0 0 
SMALL
USER_CHARGES


@<TRIPOS>ATOM
      1 C1         -3.4570    4.3980   -2.5800 C.3     1     ****    0.0820 
      2 C2         -1.6990    2.6620   -2.7990 C.3     1     ****    0.0810 
      3 C3         -2.5470    3.3330   -0.5150 C.3     1     ****    0.0990 
      4 C4         -2.3810    1.9770    0.1810 C.3     1     ****   -0.0920 
      5 C5         -2.1940    2.1170    1.7250 C.3     1     ****   -0.0460 
      6 C6         -0.9080    2.8240    2.1520 C.ar    1     ****   -0.1010 
      7 C7          0.2420    2.8940    1.3490 C.ar    1     ****   -0.1310 
      8 C8          1.3900    3.5520    1.7960 C.ar    1     ****   -0.1230 
      9 C9          1.4090    4.1320    3.0610 C.ar    1     ****    0.0280 
     10 C10         0.2940    4.0480    3.8900 C.ar    1     ****   -0.1110 
     11 C11        -0.8620    3.3890    3.4470 C.ar    1     ****   -0.0560 
     12 C12        -2.0400    3.2250    4.3760 C.3     1     ****   -0.0380 
     13 C13        -2.2200    1.7740    4.8330 C.3     1     ****   -0.0350 
     14 C14        -2.3200    0.6490    3.8210 C.ar    1     ****   -0.1620 
     15 C15        -2.2720    0.7630    2.4210 C.ar    1     ****    0.4000 
     16 N1         -2.3080   -0.3300    1.6080 N.ar    1     ****   -0.6960 
     17 C16        -2.4110   -1.5520    2.1720 C.ar    1     ****    0.4050 
     18 C17        -2.4810   -1.7640    3.5300 C.ar    1     ****   -0.2230 
     19 C18        -2.4330   -0.6490    4.3540 C.ar    1     ****   -0.0950 
     20 CL1         2.8270    4.9390    3.6100 Cl      1     ****   -0.0580 
     21 H1         -4.3560    4.6540   -2.0140 H       1     ****    0.1040 
     22 H2         -2.7110    5.1950   -2.5160 H       1     ****    0.1070 
     23 H3         -3.7230    4.1890   -3.6200 H       1     ****    0.1040 
     24 H4         -1.4000    1.6780   -2.4320 H       1     ****    0.1110 
     25 H5         -2.0220    2.5750   -3.8400 H       1     ****    0.1020 
     26 H6         -0.8860    3.3850   -2.7030 H       1     ****    0.1050 
     27 H7         -1.6550    3.9630   -0.4570 H       1     ****    0.1140 
     28 H8         -3.3920    3.8720   -0.0720 H       1     ****    0.1000 
     29 H9         -3.2930    1.3940   -0.0120 H       1     ****    0.0760 
     30 H10        -1.5560    1.4070   -0.2600 H       1     ****    0.0830 
     31 H11        -3.0520    2.7480    2.0070 H       1     ****    0.0680 
     32 H12         0.2730    2.4380    0.3640 H       1     ****    0.1210 
     33 H13         2.2630    3.5980    1.1500 H       1     ****    0.1550 
     34 H14         0.3240    4.4800    4.8880 H       1     ****    0.1610 
     35 H15        -1.9020    3.8540    5.2660 H       1     ****    0.0670 
     36 H16        -2.9530    3.6080    3.9050 H       1     ****    0.0480 
     37 H17        -1.3710    1.5330    5.4900 H       1     ****    0.0690 
     38 H18        -3.1210    1.7380    5.4600 H       1     ****    0.0650 
     39 H19        -2.4370   -2.3820    1.4740 H       1     ****    0.0310 
     40 H20        -2.5640   -2.7630    3.9410 H       1     ****    0.1600 
     41 H21        -2.4730   -0.7930    5.4320 H       1     ****    0.1510 
     42 N2         -2.8710    3.1440   -1.9850 N.4     1     ****   -0.6800 
     43 H22        -3.6030    2.4240   -2.0510 H       1     ****    0.4510 
@<TRIPOS>BOND
     1  4 3 1
     2  5 4 1
     3  6 5 1
     4  7 6 ar
     5  8 7 ar
     6  9 8 ar
     7 10 9 ar
     8 11 6 ar
     9 11 10 ar
    10 12 11 1
    11 13 12 1
    12 14 13 1
    13 15 5 1
    14 15 14 ar
    15 16 15 ar
    16 17 16 ar
    17 18 17 ar
    18 19 14 ar
    19 19 18 ar
    20 20 9 1
    21 21 1 1
    22 22 1 1
    23 23 1 1
    24 24 2 1
    25 25 2 1
    26 26 2 1
    27 27 3 1
    28 28 3 1
    29 29 4 1
    30 30 4 1
    31 31 5 1
    32 32 7 1
    33 33 8 1
    34 34 10 1
    35 35 12 1
    36 36 12 1
    37 37 13 1
    38 38 13 1
    39 39 17 1
    40 40 18 1
    41 41 19 1
    42 42 1 1
    43 42 2 1
    44 42 3 1
    45 43 42 1
@<TRIPOS>SUBSTRUCTURE
1     ****    1
@<TRIPOS>MOLECULE
ZINC00000197
29 29 1 0 0 
SMALL
USER_CHARGES


@<TRIPOS>ATOM
      1 C1          4.1140   -2.5600    3.8750 C.3     1     ****   -0.1470 
      2 C2          5.1520   -2.0620    2.8630 C.3     1     ****    0.2070 
      3 N1          4.9390   -2.6680    1.5500 N.3     1     ****   -1.0040 
      4 P1          5.0960   -4.3290    1.5470 P.3     1     ****    1.6420 
      5 O1          6.5070   -4.7730    1.2120 O.3     1     ****   -0.8090 
      6 O2          4.7440   -4.7770    3.0680 O.3     1     ****   -0.5620 
      7 C3          3.7230   -4.0350    3.7240 C.3     1     ****    0.1740 
      8 N2          3.9790   -4.9620    0.4800 N.3     1     ****   -0.8820 
      9 C4          3.8400   -6.4340    0.3890 C.3     1     ****    0.2110 
     10 C5          3.3740   -7.0830    1.6880 C.3     1     ****    0.0050 
     11 CL1         3.0000   -8.8060    1.4180 Cl      1     ****   -0.1780 
     12 C6          3.9790   -4.4030   -0.8920 C.3     1     ****    0.2120 
     13 C7          2.5550   -4.1480   -1.3770 C.3     1     ****    0.0020 
     14 CL2         2.5780   -3.4230   -3.0030 Cl      1     ****   -0.1760 
     15 H1          4.0480   -2.3320    1.1890 H       1     ****    0.4440 
     16 H2          3.2030   -1.9510    3.8180 H       1     ****    0.0550 
     17 H3          4.5200   -2.4010    4.8820 H       1     ****    0.0680 
     18 H4          5.1070   -0.9710    2.7850 H       1     ****    0.0590 
     19 H5          6.1610   -2.3120    3.2120 H       1     ****    0.0580 
     20 H6          3.5360   -4.4850    4.7040 H       1     ****    0.0700 
     21 H7          2.7990   -4.1260    3.1420 H       1     ****    0.0120 
     22 H8          3.1090   -6.6900   -0.3880 H       1     ****    0.0700 
     23 H9          4.7980   -6.8710    0.0790 H       1     ****    0.0750 
     24 H10         4.1480   -7.0540    2.4570 H       1     ****    0.0730 
     25 H11         2.4660   -6.6070    2.0710 H       1     ****    0.0630 
     26 H12         4.5170   -3.4480   -0.9050 H       1     ****    0.0500 
     27 H13         4.5300   -5.0550   -1.5820 H       1     ****    0.0710 
     28 H14         1.9680   -5.0680   -1.4420 H       1     ****    0.0760 
     29 H15         2.0320   -3.4510   -0.7140 H       1     ****    0.0620 
@<TRIPOS>BOND
     1  2 1 1
     2  3 2 1
     3  4 3 1
     4  5 4 1
     5  6 4 1
     6  7 1 1
     7  7 6 1
     8  8 4 1
     9  9 8 1
    10 10 9 1
    11 11 10 1
    12 12 8 1
    13 13 12 1
    14 14 13 1
    15 15 3 1
    16 16 1 1
    17 17 1 1
    18 18 2 1
    19 19 2 1
    20 20 7 1
    21 21 7 1
    22 22 9 1
    23 23 9 1
    24 24 10 1
    25 25 10 1
    26 26 12 1
    27 27 12 1
    28 28 13 1
    29 29 13 1
@<TRIPOS>SUBSTRUCTURE
1     ****    1
@<TRIPOS>MOLECULE
ZINC00000306
29 30 1 0 0 
SMALL
USER_CHARGES


@<TRIPOS>ATOM
      1 C1          4.2150   -9.7170    0.3380 C.ar    1     ****   -0.1230 
      2 C2          4.2510   -9.2840   -0.9860 C.ar    1     ****   -0.1330 
      3 C3          4.3810   -7.9250   -1.2750 C.ar    1     ****   -0.1210 
      4 C4          4.4810   -6.9810   -0.2420 C.ar    1     ****   -0.0920 
      5 C5          4.4390   -7.4300    1.0870 C.ar    1     ****   -0.0950 
      6 C6          4.3080   -8.7900    1.3740 C.ar    1     ****   -0.1340 
      7 C7          4.6050   -5.5050   -0.5700 C.3     1     ****    0.1860 
      8 C8          3.3000   -4.7590   -0.2500 C.3     1     ****    0.1600 
      9 N1          3.3510   -3.4180   -0.8020 N.pl3   1     ****   -0.8380 
     10 C9          2.3350   -2.5040   -0.5790 C.ar    1     ****    0.8620 
     11 N2          1.2960   -2.8240    0.2270 N.ar    1     ****   -0.7410 
     12 C10         0.3400   -1.8880    0.4020 C.ar    1     ****    0.4620 
     13 C11         0.3710   -0.6470   -0.1870 C.ar    1     ****   -0.4190 
     14 C12         1.4620   -0.4090   -0.9880 C.ar    1     ****    0.4630 
     15 N3          2.4470   -1.3080   -1.1990 N.ar    1     ****   -0.7460 
     16 O1          5.6610   -4.9520    0.2050 O.3     1     ****   -0.5940 
     17 H1          4.0750   -3.1470   -1.4550 H       1     ****    0.4250 
     18 H2          5.6570   -3.9910    0.0610 H       1     ****    0.4130 
     19 H3          4.1140  -10.7750    0.5620 H       1     ****    0.1320 
     20 H4          4.1770  -10.0060   -1.7950 H       1     ****    0.1320 
     21 H5          4.4040   -7.6080   -2.3150 H       1     ****    0.1290 
     22 H6          4.5090   -6.7220    1.9090 H       1     ****    0.1490 
     23 H7          4.2790   -9.1260    2.4070 H       1     ****    0.1340 
     24 H8          4.8430   -5.4120   -1.6420 H       1     ****    0.0390 
     25 H9          2.4440   -5.2940   -0.6780 H       1     ****    0.0490 
     26 H10         3.1630   -4.7020    0.8380 H       1     ****    0.0920 
     27 H11        -0.4780   -2.1780    1.0540 H       1     ****    0.0270 
     28 H12        -0.4070    0.0880   -0.0320 H       1     ****    0.1550 
     29 H13         1.5840    0.5390   -1.5010 H       1     ****    0.0260 
@<TRIPOS>BOND
     1  2 1 ar
     2  3 2 ar
     3  4 3 ar
     4  5 4 ar
     5  6 1 ar
     6  6 5 ar
     7  7 4 1
     8  8 7 1
     9  9 8 1
    10 10 9 1
    11 11 10 ar
    12 12 11 ar
    13 13 12 ar
    14 14 13 ar
    15 15 10 ar
    16 15 14 ar
    17 16 7 1
    18 17 9 1
    19 18 16 1
    20 19 1 1
    21 20 2 1
    22 21 3 1
    23 22 5 1
    24 23 6 1
    25 24 7 1
    26 25 8 1
    27 26 8 1
    28 27 12 1
    29 28 13 1
    30 29 14 1
@<TRIPOS>SUBSTRUCTURE
1     ****    1
@<TRIPOS>MOLECULE
ZINC00000321
53 56 1 0 0 
SMALL
USER_CHARGES


@<TRIPOS>ATOM
      1 C1         -2.1440   -2.2460   -0.0780 C.3     1     ****   -0.0920 
      2 C2         -1.8880   -0.7550   -0.3960 C.3     1     ****   -0.0250 
      3 C3         -2.8860    0.0960    0.4450 C.3     1     ****   -0.0760 
      4 C4         -2.5420    0.1520    1.9260 C.3     1     ****   -0.1790 
      5 C5         -1.1280    0.6280    2.1250 C.2     1     ****    0.5710 
      6 O1         -0.7900    1.2530    3.1290 O.2     1     ****   -0.5370 
      7 C6         -0.1100    0.2540    1.1160 C.2     1     ****   -0.2580 
      8 C7         -0.4380   -0.4080   -0.0070 C.2     1     ****   -0.0300 
      9 C8          0.6650   -0.8410   -0.9560 C.3     1     ****   -0.0530 
     10 C9          0.3640   -0.5720   -2.4380 C.3     1     ****   -0.0700 
     11 C10        -1.0120   -1.1470   -2.7920 C.3     1     ****   -0.0740 
     12 C11        -2.0760   -0.4020   -1.9240 C.3     1     ****    0.1710 
     13 C12        -3.4860   -0.6840   -2.5040 C.3     1     ****    0.1360 
     14 C13        -3.6260   -0.0510   -3.9180 C.3     1     ****   -0.1000 
     15 C14        -2.3300   -0.0850   -4.7880 C.3     1     ****   -0.0280 
     16 C15        -1.4180   -1.2150   -4.2810 C.3     1     ****   -0.0650 
     17 C16        -0.3530   -1.3040   -5.3760 C.3     1     ****   -0.0670 
     18 C17        -1.1360   -0.9960   -6.6830 C.3     1     ****   -0.1070 
     19 C18        -2.5600   -0.5200   -6.2590 C.3     1     ****    0.1460 
     20 C19        -3.1440    0.5360   -7.1910 C.3     1     ****   -0.1150 
     21 O2         -3.4380   -1.6520   -6.2900 O.3     1     ****   -0.6080 
     22 C20        -1.6480    1.3150   -4.7550 C.3     1     ****   -0.0960 
     23 O3         -3.7030   -2.0860   -2.5940 O.3     1     ****   -0.6000 
     24 F1         -1.8770    0.9460   -2.0180 F       1     ****   -0.2370 
     25 H1         -3.4820   -1.9730   -7.2070 H       1     ****    0.4030 
     26 H2         -4.5800   -2.2260   -2.9910 H       1     ****    0.4170 
     27 H3         -1.5500   -2.9290   -0.6910 H       1     ****    0.0360 
     28 H4         -1.8870   -2.4780    0.9630 H       1     ****    0.0390 
     29 H5         -3.1980   -2.5120   -0.2030 H       1     ****    0.0750 
     30 H6         -2.9030    1.1270    0.0660 H       1     ****    0.0630 
     31 H7         -3.9080   -0.2870    0.3380 H       1     ****    0.0560 
     32 H8         -3.2180    0.8560    2.4230 H       1     ****    0.0740 
     33 H9         -2.6560   -0.8240    2.4080 H       1     ****    0.0700 
     34 H10         0.9180    0.5020    1.3570 H       1     ****    0.1470 
     35 H11         1.6160   -0.3570   -0.7040 H       1     ****    0.0570 
     36 H12         0.8250   -1.9190   -0.8180 H       1     ****    0.0550 
     37 H13         0.4180    0.5020   -2.6430 H       1     ****    0.0630 
     38 H14         1.1450   -1.0510   -3.0390 H       1     ****    0.0490 
     39 H15        -0.9260   -2.2120   -2.5110 H       1     ****    0.0640 
     40 H16        -4.2700   -0.2270   -1.8840 H       1     ****    0.0750 
     41 H17        -4.4580   -0.5390   -4.4370 H       1     ****    0.0780 
     42 H18        -3.9410    0.9930   -3.7900 H       1     ****    0.0600 
     43 H19        -1.9240   -2.1990   -4.3450 H       1     ****    0.0520 
     44 H20         0.4430   -0.5650   -5.2400 H       1     ****    0.0480 
     45 H21         0.1140   -2.2940   -5.4140 H       1     ****    0.0460 
     46 H22        -0.5990   -0.2240   -7.2460 H       1     ****    0.0510 
     47 H23        -1.1850   -1.8950   -7.3090 H       1     ****    0.0480 
     48 H24        -3.3200    0.1150   -8.1880 H       1     ****    0.0350 
     49 H25        -4.1160    0.8810   -6.8230 H       1     ****    0.0510 
     50 H26        -2.4890    1.4040   -7.3100 H       1     ****    0.0510 
     51 H27        -2.3750    2.1060   -4.9720 H       1     ****    0.0370 
     52 H28        -1.1730    1.5690   -3.8120 H       1     ****    0.0630 
     53 H29        -0.8570    1.4070   -5.5080 H       1     ****    0.0330 
@<TRIPOS>BOND
     1  2 1 1
     2  3 2 1
     3  4 3 1
     4  5 4 1
     5  6 5 2
     6  7 5 1
     7  8 2 1
     8  8 7 2
     9  9 8 1
    10 10 9 1
    11 11 10 1
    12 12 2 1
    13 12 11 1
    14 13 12 1
    15 14 13 1
    16 15 14 1
    17 16 11 1
    18 16 15 1
    19 17 16 1
    20 18 17 1
    21 19 15 1
    22 19 18 1
    23 20 19 1
    24 21 19 1
    25 22 15 1
    26 23 13 1
    27 24 12 1
    28 25 21 1
    29 26 23 1
    30 27 1 1
    31 28 1 1
    32 29 1 1
    33 30 3 1
    34 31 3 1
    35 32 4 1
    36 33 4 1
    37 34 7 1
    38 35 9 1
    39 36 9 1
    40 37 10 1
    41 38 10 1
    42 39 11 1
    43 40 13 1
    44 41 14 1
    45 42 14 1
    46 43 16 1
    47 44 17 1
    48 45 17 1
    49 46 18 1
    50 47 18 1
    51 48 20 1
    52 49 20 1
    53 50 20 1
    54 51 22 1
    55 52 22 1
    56 53 22 1
@<TRIPOS>SUBSTRUCTURE
1     ****    1
@<TRIPOS>MOLECULE
ZINC00000334
26 27 1 0 0 
SMALL
USER_CHARGES


@<TRIPOS>ATOM
      1 C1          5.5880   -9.6340    1.3810 C.3     1     ****   -0.1150 
      2 C2          5.3940   -9.0950   -0.0350 C.3     1     ****    0.1330 
      3 C3          5.7650   -7.6270   -0.1430 C.3     1     ****    0.0180 
      4 N1          4.4800   -7.0000   -0.1380 N.am    1     ****   -0.2380 
      5 C4          3.4680   -7.9220   -0.3260 C.2     1     ****    0.8430 
      6 O1          2.2690   -7.7070   -0.4440 O.2     1     ****   -0.5250 
      7 O2          4.0130   -9.1830   -0.3840 O.3     1     ****   -0.3880 
      8 N2          4.1940   -5.6760   -0.0930 N.2     1     ****   -0.3510 
      9 C5          5.1740   -4.8380   -0.0290 C.2     1     ****    0.2350 
     10 C6          4.9260   -3.4260    0.0260 C.2     1     ****    0.2870 
     11 C7          5.7970   -2.3530    0.0950 C.2     1     ****   -0.2710 
     12 C8          5.0020   -1.1790    0.1260 C.2     1     ****   -0.1370 
     13 C9          3.7060   -1.6260    0.0740 C.2     1     ****    0.1260 
     14 O3          3.6330   -2.9770    0.0140 O.2     1     ****   -0.2830 
     15 N3          2.4630   -0.9420    0.0730 N.2     1     ****    0.2460 
     16 O4          1.4340   -1.6250    0.0180 O.2     1     ****   -0.1640 
     17 O5          2.5140    0.2930    0.1280 O.3     1     ****   -0.2020 
     18 H1          5.2670  -10.6790    1.4350 H       1     ****    0.0690 
     19 H2          6.6370   -9.5730    1.6870 H       1     ****    0.0520 
     20 H3          4.9780   -9.0800    2.1040 H       1     ****    0.0560 
     21 H4          6.0230   -9.6990   -0.7040 H       1     ****    0.0880 
     22 H5          6.3950   -7.2770    0.6800 H       1     ****    0.0670 
     23 H6          6.2450   -7.4130   -1.1030 H       1     ****    0.0760 
     24 H7          6.2340   -5.1440   -0.0170 H       1     ****    0.0140 
     25 H8          6.8760   -2.4100    0.1200 H       1     ****    0.1750 
     26 H9          5.3400   -0.1540    0.1790 H       1     ****    0.1910 
@<TRIPOS>BOND
     1  2 1 1
     2  3 2 1
     3  4 3 1
     4  5 4 1
     5  6 5 2
     6  7 2 1
     7  7 5 1
     8  8 4 1
     9  9 8 2
    10 10 9 1
    11 11 10 2
    12 12 11 1
    13 13 12 2
    14 14 10 1
    15 14 13 1
    16 15 13 1
    17 16 15 2
    18 17 15 1
    19 18 1 1
    20 19 1 1
    21 20 1 1
    22 21 2 1
    23 22 3 1
    24 23 3 1
    25 24 9 1
    26 25 11 1
    27 26 12 1
@<TRIPOS>SUBSTRUCTURE
1     ****    1
@<TRIPOS>MOLECULE
ZINC00000347
48 51 1 0 0 
SMALL
USER_CHARGES


@<TRIPOS>ATOM
      1 C1          2.6250    3.4610   -9.0860 C.3     1     ****    0.0370 
      2 N1          2.0690    3.3590   -7.7590 N.pl3   1     ****    0.1160 
      3 C2          1.9670    2.2210   -7.0050 C.ar    1     ****   -0.0640 
      4 C3          2.3410    0.8940   -7.2560 C.ar    1     ****   -0.1170 
      5 C4          2.0720   -0.0520   -6.2640 C.ar    1     ****   -0.0990 
      6 C5          1.4490    0.3160   -5.0750 C.ar    1     ****   -0.1360 
      7 C6          1.0820    1.6460   -4.8380 C.ar    1     ****   -0.0920 
      8 C7          1.3580    2.6240   -5.8170 C.ar    1     ****   -0.1830 
      9 C8          1.1550    4.0310   -5.9660 C.2     1     ****    0.2510 
     10 N2          1.5680    4.4550   -7.1700 N.2     1     ****   -0.4210 
     11 C9          0.5700    5.0040   -5.0450 C.2     1     ****    0.6350 
     12 O1          0.0050    6.0180   -5.4490 O.2     1     ****   -0.5740 
     13 N3          0.7410    4.7060   -3.7010 N.am    1     ****   -0.5820 
     14 C10         0.2400    5.5680   -2.6350 C.3     1     ****    0.1040 
     15 C11         1.2440    6.6880   -2.3320 C.3     1     ****   -0.1420 
     16 C12         0.8490    7.5270   -1.1070 C.3     1     ****    0.1460 
     17 C13        -0.4390    8.3350   -1.3540 C.3     1     ****   -0.1030 
     18 C14        -1.7020    7.8490   -0.6530 C.3     1     ****   -0.0930 
     19 C15        -1.7750    6.3510   -0.3800 C.3     1     ****   -0.0990 
     20 C16        -0.4370    5.6160   -0.1690 C.3     1     ****    0.1430 
     21 C17        -0.0640    4.7440   -1.3780 C.3     1     ****   -0.1200 
     22 C18         0.7080    7.2390    1.4100 C.3     1     ****    0.0860 
     23 H1          1.3280    3.9220   -3.4350 H       1     ****    0.3210 
     24 H2          1.9730    2.9180   -9.7740 H       1     ****    0.0630 
     25 H3          2.6850    4.5130   -9.3790 H       1     ****    0.0870 
     26 H4          3.6280    3.0260   -9.0790 H       1     ****    0.0610 
     27 H5          2.8160    0.6030   -8.1870 H       1     ****    0.1500 
     28 H6          2.3470   -1.0910   -6.4280 H       1     ****    0.1480 
     29 H7          1.2400   -0.4400   -4.3210 H       1     ****    0.1410 
     30 H8          0.5810    1.9000   -3.9090 H       1     ****    0.1300 
     31 H9         -0.6920    6.0170   -2.9990 H       1     ****    0.1020 
     32 H10         2.2360    6.2490   -2.1570 H       1     ****    0.0620 
     33 H11         1.3580    7.3370   -3.2090 H       1     ****    0.1160 
     34 H12         1.6560    8.2500   -0.8980 H       1     ****    0.0970 
     35 H13        -0.2640    9.3720   -1.0370 H       1     ****    0.0780 
     36 H14        -0.6340    8.4080   -2.4320 H       1     ****    0.1020 
     37 H15        -1.8010    8.3830    0.3000 H       1     ****    0.0520 
     38 H16        -2.5820    8.1590   -1.2300 H       1     ****    0.0940 
     39 H17        -2.3940    6.2080    0.5160 H       1     ****    0.0780 
     40 H18        -2.3430    5.8690   -1.1860 H       1     ****    0.0920 
     41 H19        -0.5550    4.9660    0.7140 H       1     ****    0.0960 
     42 H20        -0.8680    4.0280   -1.5890 H       1     ****    0.1070 
     43 H21         0.8150    4.1370   -1.1170 H       1     ****    0.0610 
     44 H22         0.7100    6.4430    2.1600 H       1     ****    0.0980 
     45 H23         1.6340    7.8160    1.4850 H       1     ****    0.0980 
     46 H24        -0.1570    7.8860    1.5420 H       1     ****    0.1100 
     47 N4          0.6800    6.5920    0.0530 N.4     1     ****   -0.6810 
     48 H25         1.5370    6.0220    0.0660 H       1     ****    0.4430 
@<TRIPOS>BOND
     1  2 1 1
     2  3 2 1
     3  4 3 ar
     4  5 4 ar
     5  6 5 ar
     6  7 6 ar
     7  8 3 ar
     8  8 7 ar
     9  9 8 1
    10 10 2 1
    11 10 9 2
    12 11 9 1
    13 12 11 2
    14 13 11 1
    15 14 13 1
    16 15 14 1
    17 16 15 1
    18 17 16 1
    19 18 17 1
    20 19 18 1
    21 20 19 1
    22 21 14 1
    23 21 20 1
    24 23 13 1
    25 24 1 1
    26 25 1 1
    27 26 1 1
    28 27 4 1
    29 28 5 1
    30 29 6 1
    31 30 7 1
    32 31 14 1
    33 32 15 1
    34 33 15 1
    35 34 16 1
    36 35 17 1
    37 36 17 1
    38 37 18 1
    39 38 18 1
    40 39 19 1
    41 40 19 1
    42 41 20 1
    43 42 21 1
    44 43 21 1
    45 44 22 1
    46 45 22 1
    47 46 22 1
    48 47 16 1
    49 47 20 1
    50 47 22 1
    51 48 47 1
@<TRIPOS>SUBSTRUCTURE
1     ****    1
@<TRIPOS>MOLECULE
ZINC00000349
29 30 1 0 0 
SMALL
USER_CHARGES


@<TRIPOS>ATOM
      1 C1          6.2830   -6.8380   -2.1750 C.3     1     ****    0.1130 
      2 O1          5.5460   -6.3090   -1.0790 O.3     1     ****   -0.3140 
      3 C2          4.6730   -7.1560   -0.4520 C.ar    1     ****    0.1310 
      4 C3          4.4640   -8.4980   -0.7810 C.ar    1     ****   -0.1980 
      5 C4          3.5500   -9.2690   -0.0540 C.ar    1     ****   -0.0940 
      6 C5          2.8390   -8.7120    1.0100 C.ar    1     ****   -0.1560 
      7 C6          3.0350   -7.3770    1.3510 C.ar    1     ****   -0.0940 
      8 C7          3.9360   -6.6120    0.6090 C.ar    1     ****    0.0780 
      9 O2          4.1420   -5.2800    0.9900 O.3     1     ****   -0.3530 
     10 C8          3.3060   -4.3970    0.3330 C.2     1     ****    0.6530 
     11 O3          2.4350   -4.6720   -0.4790 O.2     1     ****   -0.5210 
     12 C9          3.6010   -3.0070    0.7680 C.ar    1     ****   -0.1330 
     13 C10         4.6910   -2.6920    1.5890 C.ar    1     ****   -0.0670 
     14 C11         4.9240   -1.3670    1.9640 C.ar    1     ****   -0.1490 
     15 C12         4.0760   -0.3530    1.5230 C.ar    1     ****   -0.0970 
     16 C13         2.9920   -0.6610    0.7030 C.ar    1     ****   -0.1470 
     17 C14         2.7540   -1.9830    0.3250 C.ar    1     ****   -0.0750 
     18 H1          6.9180   -6.0380   -2.5670 H       1     ****    0.0690 
     19 H2          6.9370   -7.6550   -1.8530 H       1     ****    0.0330 
     20 H3          5.6150   -7.1570   -2.9820 H       1     ****    0.0370 
     21 H4          4.9970   -8.9790   -1.5950 H       1     ****    0.1400 
     22 H5          3.3950  -10.3120   -0.3170 H       1     ****    0.1340 
     23 H6          2.1360   -9.3200    1.5720 H       1     ****    0.1370 
     24 H7          2.4880   -6.9410    2.1810 H       1     ****    0.1480 
     25 H8          5.3770   -3.4550    1.9470 H       1     ****    0.1580 
     26 H9          5.7710   -1.1250    2.6020 H       1     ****    0.1380 
     27 H10         4.2600    0.6770    1.8170 H       1     ****    0.1350 
     28 H11         2.3310    0.1300    0.3580 H       1     ****    0.1390 
     29 H12         1.9010   -2.1980   -0.3160 H       1     ****    0.1570 
@<TRIPOS>BOND
     1  2 1 1
     2  3 2 1
     3  4 3 ar
     4  5 4 ar
     5  6 5 ar
     6  7 6 ar
     7  8 3 ar
     8  8 7 ar
     9  9 8 1
    10 10 9 1
    11 11 10 2
    12 12 10 1
    13 13 12 ar
    14 14 13 ar
    15 15 14 ar
    16 16 15 ar
    17 17 12 ar
    18 17 16 ar
    19 18 1 1
    20 19 1 1
    21 20 1 1
    22 21 4 1
    23 22 5 1
    24 23 6 1
    25 24 7 1
    26 25 13 1
    27 26 14 1
    28 27 15 1
    29 28 16 1
    30 29 17 1
@<TRIPOS>SUBSTRUCTURE
1     ****    1
@<TRIPOS>MOLECULE
ZINC00000357
29 30 1 0 0 
SMALL
USER_CHARGES


@<TRIPOS>ATOM
      1 C1          4.0580   -8.8010   -1.0260 C.ar    1     ****   -0.1120 
      2 C2          2.7530   -8.9230   -0.5450 C.ar    1     ****   -0.1190 
      3 C3          2.0690   -7.7970   -0.0860 C.ar    1     ****   -0.1140 
      4 C4          2.6910   -6.5500   -0.1120 C.ar    1     ****    0.0360 
      5 C5          4.0060   -6.4320   -0.5670 C.ar    1     ****    0.0520 
      6 C6          4.6860   -7.5550   -1.0390 C.ar    1     ****   -0.1050 
      7 O1          4.6820   -5.2400   -0.5830 O.3     1     ****   -0.2960 
      8 C7          4.0280   -4.2470    0.2140 C.3     1     ****    0.1010 
      9 C8          2.5320   -4.2350   -0.0810 C.3     1     ****    0.0890 
     10 O2          1.9630   -5.4780    0.3340 O.3     1     ****   -0.3460 
     11 C9          1.8380   -3.1090    0.6940 C.3     1     ****    0.0190 
     12 N1          0.4170   -3.0100    0.3070 N.pl3   1     ****   -0.3900 
     13 C10        -0.4390   -2.0530    0.8250 C.cat   1     ****    0.5220 
     14 N2         -1.7550   -2.0320    0.4110 N.pl3   1     ****   -0.5070 
     15 N3         -0.0100   -1.1180    1.7460 N.pl3   1     ****   -0.5030 
     16 H1          0.0350   -3.6770   -0.3600 H       1     ****    0.3360 
     17 H2         -2.4090   -1.3430    0.7710 H       1     ****    0.3270 
     18 H3         -2.1080   -2.7040   -0.2640 H       1     ****    0.3290 
     19 H4         -0.6480   -0.4200    2.1180 H       1     ****    0.3270 
     20 H5          0.9470   -1.0970    2.0820 H       1     ****    0.3280 
     21 H6          4.5870   -9.6790   -1.3870 H       1     ****    0.1540 
     22 H7          2.2690   -9.8950   -0.5320 H       1     ****    0.1510 
     23 H8          1.0510   -7.8980    0.2800 H       1     ****    0.1490 
     24 H9          5.7050   -7.4690   -1.4050 H       1     ****    0.1650 
     25 H10         4.2360   -4.4580    1.2710 H       1     ****    0.0670 
     26 H11         4.4810   -3.2810   -0.0330 H       1     ****    0.0920 
     27 H12         2.3530   -4.0720   -1.1580 H       1     ****    0.0870 
     28 H13         1.8730   -3.3140    1.7690 H       1     ****    0.0820 
     29 H14         2.3160   -2.1500    0.4680 H       1     ****    0.0770 
@<TRIPOS>BOND
     1  2 1 ar
     2  3 2 ar
     3  4 3 ar
     4  5 4 ar
     5  6 1 ar
     6  6 5 ar
     7  7 5 1
     8  8 7 1
     9  9 8 1
    10 10 4 1
    11 10 9 1
    12 11 9 1
    13 12 11 1
    14 13 12 1
    15 14 13 1
    16 15 13 1
    17 16 12 1
    18 17 14 1
    19 18 14 1
    20 19 15 1
    21 20 15 1
    22 21 1 1
    23 22 2 1
    24 23 3 1
    25 24 6 1
    26 25 8 1
    27 26 8 1
    28 27 9 1
    29 28 11 1
    30 29 11 1
@<TRIPOS>SUBSTRUCTURE
1     ****    1
@<TRIPOS>MOLECULE
ZINC00000471
31 32 1 0 0 
SMALL
USER_CHARGES


@<TRIPOS>ATOM
      1 C1          7.3920   -5.9510    0.4220 C.3     1     ****   -0.0570 
      2 C2          6.0130   -6.2870   -0.0620 C.ar    1     ****   -0.0410 
      3 C3          5.7590   -7.5140   -0.6850 C.ar    1     ****   -0.1600 
      4 C4          4.4820   -7.8160   -1.1740 C.ar    1     ****   -0.0390 
      5 C5          3.4460   -6.8820   -1.0220 C.ar    1     ****   -0.2050 
      6 C6          3.6900   -5.6470   -0.4160 C.ar    1     ****    0.1290 
      7 C7          4.9750   -5.3550    0.0540 C.ar    1     ****   -0.1580 
      8 O1          2.7690   -4.6520   -0.2240 O.3     1     ****   -0.3430 
      9 C8          1.4380   -4.8930   -0.6850 C.3     1     ****    0.1140 
     10 C9          0.5550   -3.6740   -0.3860 C.3     1     ****    0.1170 
     11 C10         0.5920   -3.2380    1.0690 C.3     1     ****    0.0320 
     12 N1          1.4230   -2.0810    1.0170 N.am    1     ****   -0.5190 
     13 C11         1.6230   -1.6680   -0.2800 C.2     1     ****    0.7980 
     14 O2          2.2250   -0.6670   -0.6400 O.2     1     ****   -0.5790 
     15 O3          1.0250   -2.5540   -1.1410 O.3     1     ****   -0.4000 
     16 C12         4.2100   -9.1510   -1.8030 C.3     1     ****   -0.0570 
     17 H1          1.7580   -1.5690    1.8250 H       1     ****    0.3170 
     18 H2          7.9240   -6.8530    0.7430 H       1     ****    0.0450 
     19 H3          7.9620   -5.4700   -0.3780 H       1     ****    0.0520 
     20 H4          7.3510   -5.2760    1.2830 H       1     ****    0.0460 
     21 H5          6.5620   -8.2400   -0.7910 H       1     ****    0.1350 
     22 H6          2.4590   -7.1430   -1.3910 H       1     ****    0.1350 
     23 H7          5.1670   -4.3900    0.5200 H       1     ****    0.1480 
     24 H8          1.4540   -5.0590   -1.7690 H       1     ****    0.0720 
     25 H9          1.0200   -5.7680   -0.1720 H       1     ****    0.0470 
     26 H10        -0.4800   -3.9340   -0.6550 H       1     ****    0.0880 
     27 H11        -0.3950   -2.9190    1.4180 H       1     ****    0.0720 
     28 H12         0.9980   -3.9800    1.7610 H       1     ****    0.0720 
     29 H13         5.1080   -9.5430   -2.2920 H       1     ****    0.0460 
     30 H14         3.8820   -9.8630   -1.0410 H       1     ****    0.0490 
     31 H15         3.4330   -9.0700   -2.5710 H       1     ****    0.0440 
@<TRIPOS>BOND
     1  2 1 1
     2  3 2 ar
     3  4 3 ar
     4  5 4 ar
     5  6 5 ar
     6  7 2 ar
     7  7 6 ar
     8  8 6 1
     9  9 8 1
    10 10 9 1
    11 11 10 1
    12 12 11 1
    13 13 12 1
    14 14 13 2
    15 15 10 1
    16 15 13 1
    17 16 4 1
    18 17 12 1
    19 18 1 1
    20 19 1 1
    21 20 1 1
    22 21 3 1
    23 22 5 1
    24 23 7 1
    25 24 9 1
    26 25 9 1
    27 26 10 1
    28 27 11 1
    29 28 11 1
    30 29 16 1
    31 30 16 1
    32 31 16 1
@<TRIPOS>SUBSTRUCTURE
1     ****    1
@<TRIPOS>MOLECULE
ZINC00000479
31 32 1 0 0 
SMALL
USER_CHARGES


@<TRIPOS>ATOM
      1 C1          6.3360   -8.0450   -1.7790 C.3     1     ****   -0.1110 
      2 C2          6.0660   -7.0030   -0.6980 C.3     1     ****    0.3080 
      3 N1          5.3800   -7.5810    0.4180 N.am    1     ****   -0.6090 
      4 C3          4.0540   -7.2010    0.4570 C.2     1     ****    0.6850 
      5 O1          3.2080   -7.5460    1.2650 O.2     1     ****   -0.6020 
      6 C4          3.8670   -6.2710   -0.7160 C.3     1     ****    0.1030 
      7 O2          5.1690   -6.0130   -1.2300 O.3     1     ****   -0.4200 
      8 C5          3.2530   -4.9810   -0.2560 C.2     1     ****   -0.1670 
      9 C6          2.0260   -4.5730   -0.6200 C.2     1     ****   -0.0790 
     10 C7          1.3900   -3.3210   -0.1810 C.ar    1     ****   -0.0620 
     11 C8          2.1210   -2.1590    0.1090 C.ar    1     ****   -0.1130 
     12 C9          1.4680   -0.9860    0.4950 C.ar    1     ****   -0.1320 
     13 C10         0.0780   -0.9560    0.5880 C.ar    1     ****   -0.1230 
     14 C11        -0.6610   -2.0970    0.2880 C.ar    1     ****   -0.1320 
     15 C12        -0.0100   -3.2710   -0.0990 C.ar    1     ****   -0.1140 
     16 C13         7.3480   -6.3040   -0.2640 C.3     1     ****   -0.1130 
     17 H1          5.7950   -8.2310    1.0790 H       1     ****    0.3430 
     18 H2          6.7950   -7.5840   -2.6610 H       1     ****    0.0590 
     19 H3          6.9960   -8.8390   -1.4140 H       1     ****    0.0450 
     20 H4          5.4040   -8.5110   -2.1200 H       1     ****    0.0530 
     21 H5          3.2330   -6.7530   -1.4750 H       1     ****    0.0870 
     22 H6          3.8570   -4.3760    0.4160 H       1     ****    0.1410 
     23 H7          1.4260   -5.2050   -1.2710 H       1     ****    0.1280 
     24 H8          3.2050   -2.1440    0.0290 H       1     ****    0.1340 
     25 H9          2.0460   -0.0940    0.7190 H       1     ****    0.1320 
     26 H10        -0.4280   -0.0430    0.8870 H       1     ****    0.1320 
     27 H11        -1.7450   -2.0750    0.3540 H       1     ****    0.1330 
     28 H12        -0.6100   -4.1490   -0.3290 H       1     ****    0.1340 
     29 H13         7.1350   -5.5260    0.4780 H       1     ****    0.0530 
     30 H14         8.0590   -7.0090    0.1790 H       1     ****    0.0450 
     31 H15         7.8290   -5.8050   -1.1120 H       1     ****    0.0620 
@<TRIPOS>BOND
     1  2 1 1
     2  3 2 1
     3  4 3 1
     4  5 4 2
     5  6 4 1
     6  7 2 1
     7  7 6 1
     8  8 6 1
     9  9 8 2
    10 10 9 1
    11 11 10 ar
    12 12 11 ar
    13 13 12 ar
    14 14 13 ar
    15 15 10 ar
    16 15 14 ar
    17 16 2 1
    18 17 3 1
    19 18 1 1
    20 19 1 1
    21 20 1 1
    22 21 6 1
    23 22 8 1
    24 23 9 1
    25 24 11 1
    26 25 12 1
    27 26 13 1
    28 27 14 1
    29 28 15 1
    30 29 16 1
    31 30 16 1
    32 31 16 1
@<TRIPOS>SUBSTRUCTURE
1     ****    1
@<TRIPOS>MOLECULE
ZINC00000568
38 39 1 0 0 
SMALL
USER_CHARGES


@<TRIPOS>ATOM
      1 C1          7.0400   -8.9420    1.0640 C.3     1     ****   -0.1330 
      2 C2          6.0780   -8.7660   -0.1140 C.3     1     ****    0.1380 
      3 C3          5.6760  -10.1500   -0.6300 C.3     1     ****   -0.1330 
      4 C4          3.8150   -7.8500   -0.8010 C.3     1     ****    0.0680 
      5 C5          2.6400   -7.0090   -0.3260 C.3     1     ****    0.1010 
      6 O1          3.0820   -5.7220    0.0990 O.3     1     ****   -0.3730 
      7 C6          3.9510   -5.8260    1.2250 C.3     1     ****    0.1830 
      8 C7          5.2160   -6.5920    0.8220 C.3     1     ****    0.0690 
      9 C8          4.3050   -4.4290    1.7020 C.ar    1     ****   -0.1340 
     10 C9          4.6800   -3.4240    0.7980 C.ar    1     ****   -0.0680 
     11 C10         5.0230   -2.1520    1.2540 C.ar    1     ****   -0.1260 
     12 C11         4.9980   -1.8660    2.6180 C.ar    1     ****   -0.0480 
     13 C12         4.6220   -2.8500    3.5390 C.ar    1     ****   -0.1630 
     14 C13         4.2880   -4.1300    3.0740 C.ar    1     ****   -0.0650 
     15 C14         4.6190   -2.5540    5.0120 C.3     1     ****    0.6880 
     16 F1          3.6610   -3.2420    5.6940 F       1     ****   -0.2310 
     17 F2          5.8020   -2.8740    5.6050 F       1     ****   -0.2290 
     18 F3          4.4000   -1.2410    5.2990 F       1     ****   -0.2200 
     19 H1          7.8510   -9.6320    0.8030 H       1     ****    0.0990 
     20 H2          7.5200   -7.9990    1.3420 H       1     ****    0.0670 
     21 H3          6.5270   -9.3440    1.9450 H       1     ****    0.0660 
     22 H4          6.5570   -8.1890   -0.9140 H       1     ****    0.1050 
     23 H5          6.5620  -10.7700   -0.8080 H       1     ****    0.1000 
     24 H6          5.0360  -10.6760    0.0870 H       1     ****    0.0660 
     25 H7          5.1490  -10.0880   -1.5870 H       1     ****    0.0650 
     26 H8          4.3350   -7.3790   -1.6420 H       1     ****    0.1130 
     27 H9          3.4640   -8.8490   -1.0670 H       1     ****    0.1100 
     28 H10         1.9350   -6.8620   -1.1510 H       1     ****    0.1290 
     29 H11         2.0940   -7.5000    0.4890 H       1     ****    0.0660 
     30 H12         3.4380   -6.3420    2.0540 H       1     ****    0.0700 
     31 H13         5.8710   -6.7020    1.6900 H       1     ****    0.1140 
     32 H14         5.7560   -6.1050    0.0010 H       1     ****    0.1160 
     33 H15         4.7090   -3.6260   -0.2700 H       1     ****    0.1490 
     34 H16         5.3140   -1.3820    0.5440 H       1     ****    0.1620 
     35 H17         5.2750   -0.8710    2.9560 H       1     ****    0.1720 
     36 H18         4.0130   -4.9010    3.7910 H       1     ****    0.1520 
     37 N1          4.8320   -7.9820    0.3360 N.4     1     ****   -0.6860 
     38 H19         4.3390   -8.5000    1.0850 H       1     ****    0.4400 
@<TRIPOS>BOND
     1  2 1 1
     2  3 2 1
     3  5 4 1
     4  6 5 1
     5  7 6 1
     6  8 7 1
     7  9 7 1
     8 10 9 ar
     9 11 10 ar
    10 12 11 ar
    11 13 12 ar
    12 14 9 ar
    13 14 13 ar
    14 15 13 1
    15 16 15 1
    16 17 15 1
    17 18 15 1
    18 19 1 1
    19 20 1 1
    20 21 1 1
    21 22 2 1
    22 23 3 1
    23 24 3 1
    24 25 3 1
    25 26 4 1
    26 27 4 1
    27 28 5 1
    28 29 5 1
    29 30 7 1
    30 31 8 1
    31 32 8 1
    32 33 10 1
    33 34 11 1
    34 35 12 1
    35 36 14 1
    36 37 2 1
    37 37 4 1
    38 37 8 1
    39 38 37 1
@<TRIPOS>SUBSTRUCTURE
1     ****    1
@<TRIPOS>MOLECULE
ZINC00000662
38 40 1 0 0 
SMALL
USER_CHARGES


@<TRIPOS>ATOM
      1 C1         -0.0230    3.0820    3.4650 C.3     1     ****   -0.0880 
      2 C2          1.2050    2.2810    3.0540 C.3     1     ****   -0.0850 
      3 C3          0.8860    0.7860    2.9580 C.3     1     ****   -0.0940 
      4 C4          2.0060   -0.1280    2.3900 C.3     1     ****    0.2430 
      5 C5          2.3280    0.2180    0.9600 C.2     1     ****   -0.0310 
      6 C6          3.5720    0.5380    0.4650 C.2     1     ****   -0.1780 
      7 C7          3.4440    0.7830   -0.9260 C.ar    1     ****   -0.0720 
      8 C8          4.3380    1.1440   -1.9540 C.ar    1     ****   -0.1010 
      9 C9          3.8540    1.3050   -3.2570 C.ar    1     ****   -0.1710 
     10 C10         2.5050    1.1120   -3.5450 C.ar    1     ****   -0.1430 
     11 C11         1.5980    0.7520   -2.5440 C.ar    1     ****   -0.1290 
     12 C12         2.0950    0.5950   -1.2440 C.ar    1     ****   -0.0460 
     13 N1          1.4410    0.2460   -0.0820 N.pl3   1     ****   -0.1500 
     14 C13         4.7400    0.5720    1.3730 C.3     1     ****   -0.0230 
     15 C14         4.2350    0.8870    2.7850 C.3     1     ****    0.1410 
     16 O1          3.1970   -0.0100    3.2100 O.3     1     ****   -0.4180 
     17 C15         1.5170   -1.5900    2.4850 C.3     1     ****   -0.1980 
     18 C16         2.4630   -2.6260    1.8660 C.2     1     ****    0.9090 
     19 O2          3.5310   -2.8410    2.5040 O.co2   1     ****   -0.7990 
     20 H1          0.4550    0.0330   -0.0160 H       1     ****    0.3540 
     21 H2          0.2270    4.1440    3.5460 H       1     ****    0.0180 
     22 H3         -0.8250    2.9780    2.7260 H       1     ****    0.0330 
     23 H4         -0.4040    2.7470    4.4350 H       1     ****    0.0220 
     24 H5          1.5690    2.6640    2.0950 H       1     ****    0.0540 
     25 H6          1.9860    2.4480    3.8030 H       1     ****    0.0330 
     26 H7          0.6430    0.4440    3.9740 H       1     ****    0.0420 
     27 H8         -0.0270    0.6580    2.3610 H       1     ****    0.0580 
     28 H9          5.3930    1.2960   -1.7430 H       1     ****    0.1170 
     29 H10         4.5400    1.5840   -4.0520 H       1     ****    0.1070 
     30 H11         2.1500    1.2410   -4.5640 H       1     ****    0.1100 
     31 H12         0.5490    0.5990   -2.7700 H       1     ****    0.1310 
     32 H13         5.2240   -0.4120    1.3630 H       1     ****    0.0530 
     33 H14         5.4740    1.3200    1.0580 H       1     ****    0.0300 
     34 H15         5.0600    0.7900    3.4980 H       1     ****    0.0440 
     35 H16         3.8820    1.9210    2.8470 H       1     ****    0.0100 
     36 H17         1.3920   -1.8710    3.5390 H       1     ****    0.0630 
     37 H18         0.5310   -1.6960    2.0110 H       1     ****    0.0340 
     38 O3          2.0400   -3.1600    0.8000 O.co2   1     ****   -0.8800 
@<TRIPOS>BOND
     1  2 1 1
     2  3 2 1
     3  4 3 1
     4  5 4 1
     5  6 5 ar
     6  7 6 1
     7  8 7 ar
     8  9 8 ar
     9 10 9 ar
    10 11 10 ar
    11 12 7 ar
    12 12 11 ar
    13 13 5 1
    14 13 12 1
    15 14 6 1
    16 15 14 1
    17 16 4 1
    18 16 15 1
    19 17 4 1
    20 18 17 1
    21 19 18 1
    22 20 13 1
    23 21 1 1
    24 22 1 1
    25 23 1 1
    26 24 2 1
    27 25 2 1
    28 26 3 1
    29 27 3 1
    30 28 8 1
    31 29 9 1
    32 30 10 1
    33 31 11 1
    34 32 14 1
    35 33 14 1
    36 34 15 1
    37 35 15 1
    38 36 17 1
    39 37 17 1
    40 38 18 2
@<TRIPOS>SUBSTRUCTURE
1     ****    1
@<TRIPOS>MOLECULE
ZINC00000758
45 49 1 0 0 
SMALL
USER_CHARGES


@<TRIPOS>ATOM
      1 C1          3.6440   -7.5930    1.2390 C.3     1     ****    0.0840 
      2 C2          2.7990   -6.7720    3.4560 C.3     1     ****    0.1250 
      3 C3          1.8340   -5.8020    4.1790 C.3     1     ****   -0.0800 
      4 C4          0.5090   -5.5640    3.3910 C.3     1     ****   -0.0060 
      5 C5          0.6200   -4.2840    2.6900 C.ar    1     ****   -0.1430 
      6 C6          0.9370   -4.1010    1.3700 C.ar    1     ****   -0.1210 
      7 C7          0.9020   -2.7790    0.9480 C.ar    1     ****   -0.0860 
      8 C8          0.5150   -1.7390    1.8500 C.ar    1     ****   -0.1710 
      9 C9          0.0930   -1.9980    3.1760 C.ar    1     ****    0.1600 
     10 C10         0.1210   -3.3130    3.5710 C.ar    1     ****    0.0780 
     11 O1         -0.4280   -3.9170    4.7370 O.3     1     ****   -0.2520 
     12 C11        -0.7300   -5.2220    4.1670 C.3     1     ****    0.1690 
     13 C12        -1.0920   -6.3630    5.0550 C.2     1     ****    0.1810 
     14 C13        -1.0060   -7.5780    4.4330 C.2     1     ****   -0.3230 
     15 C14        -0.4500   -7.7290    3.0520 C.2     1     ****    0.0300 
     16 C15         0.3390   -6.7550    2.5440 C.2     1     ****   -0.2580 
     17 C16         1.3250   -6.6710    1.3940 C.3     1     ****    0.2350 
     18 C17         1.0980   -5.3520    0.5300 C.3     1     ****   -0.0390 
     19 O2         -1.5280   -6.0580    6.3140 O.3     1     ****   -0.2770 
     20 C18        -1.9090   -7.1560    7.1340 C.3     1     ****    0.1010 
     21 O3         -0.3750   -1.0900    4.0750 O.3     1     ****   -0.2950 
     22 C19        -0.3930    0.2690    3.6550 C.3     1     ****    0.1060 
     23 H1          4.6610   -7.4720    1.6210 H       1     ****    0.0980 
     24 H2          3.2670   -8.5990    1.4430 H       1     ****    0.1000 
     25 H3          3.6170   -7.3690    0.1700 H       1     ****    0.0980 
     26 H4          2.5480   -7.8180    3.6700 H       1     ****    0.0980 
     27 H5          3.8310   -6.5930    3.7770 H       1     ****    0.0930 
     28 H6          1.6350   -6.2210    5.1740 H       1     ****    0.0990 
     29 H7          2.3690   -4.8610    4.3630 H       1     ****    0.0880 
     30 H8          1.1320   -2.5240   -0.0840 H       1     ****    0.1490 
     31 H9          0.5070   -0.7270    1.4530 H       1     ****    0.1580 
     32 H10        -1.6080   -5.0880    3.4870 H       1     ****    0.0980 
     33 H11        -1.2860   -8.5020    4.9260 H       1     ****    0.1630 
     34 H12        -0.5600   -8.6920    2.5660 H       1     ****    0.1480 
     35 H13         1.1980   -7.5400    0.7280 H       1     ****    0.1000 
     36 H14         0.1790   -5.4800   -0.0560 H       1     ****    0.1060 
     37 H15         1.9290   -5.2210   -0.1730 H       1     ****    0.0630 
     38 H16        -2.2160   -6.7590    8.1060 H       1     ****    0.0950 
     39 H17        -2.7620   -7.6900    6.7020 H       1     ****    0.0530 
     40 H18        -1.0650   -7.8340    7.2970 H       1     ****    0.0450 
     41 H19        -0.7710    0.8710    4.4870 H       1     ****    0.0890 
     42 H20         0.6160    0.6230    3.4190 H       1     ****    0.0420 
     43 H21        -1.0710    0.4110    2.8070 H       1     ****    0.0440 
     44 N1          2.7630   -6.5940    1.9460 N.4     1     ****   -0.6980 
     45 H22         3.1890   -5.6760    1.7270 H       1     ****    0.4510 
@<TRIPOS>BOND
     1  3 2 1
     2  4 3 1
     3  5 4 1
     4  6 5 ar
     5  7 6 ar
     6  8 7 ar
     7  9 8 ar
     8 10 5 ar
     9 10 9 ar
    10 11 10 1
    11 12 4 1
    12 12 11 1
    13 13 12 1
    14 14 13 2
    15 15 14 1
    16 16 4 1
    17 16 15 2
    18 17 16 1
    19 18 6 1
    20 18 17 1
    21 19 13 1
    22 20 19 1
    23 21 9 1
    24 22 21 1
    25 23 1 1
    26 24 1 1
    27 25 1 1
    28 26 2 1
    29 27 2 1
    30 28 3 1
    31 29 3 1
    32 30 7 1
    33 31 8 1
    34 32 12 1
    35 33 14 1
    36 34 15 1
    37 35 17 1
    38 36 18 1
    39 37 18 1
    40 38 20 1
    41 39 20 1
    42 40 20 1
    43 41 22 1
    44 42 22 1
    45 43 22 1
    46 44 1 1
    47 44 2 1
    48 44 17 1
    49 45 44 1
@<TRIPOS>SUBSTRUCTURE
1     ****    1
@<TRIPOS>MOLECULE
ZINC00000801
54 57 1 0 0 
SMALL
USER_CHARGES


@<TRIPOS>ATOM
      1 C1         -5.5090    7.0410    1.0170 C.3     1     ****   -0.0920 
      2 C2         -5.4500    6.7350    2.5260 C.3     1     ****   -0.0590 
      3 C3         -6.5340    7.5000    3.2910 C.3     1     ****   -0.0500 
      4 C4         -7.9320    7.0040    3.0200 C.2     1     ****   -0.0290 
      5 C5         -8.9710    7.8540    3.0330 C.2     1     ****   -0.2700 
      6 C6        -10.3550    7.3640    2.8260 C.2     1     ****    0.5690 
      7 O1        -11.2790    8.1710    2.7410 O.2     1     ****   -0.5400 
      8 C7        -10.5840    5.8780    2.6810 C.3     1     ****   -0.1820 
      9 C8         -9.4640    5.0680    3.3230 C.3     1     ****   -0.0700 
     10 C9         -8.0910    5.5190    2.7860 C.3     1     ****   -0.0380 
     11 C10        -6.9090    4.7800    3.4510 C.3     1     ****   -0.0520 
     12 C11        -5.5820    5.1890    2.7660 C.3     1     ****   -0.0530 
     13 C12        -4.4190    4.6770    3.6410 C.3     1     ****   -0.0550 
     14 C13        -3.0430    4.8090    2.9560 C.3     1     ****   -0.0780 
     15 C14        -2.2300    3.6700    3.5530 C.3     1     ****   -0.0850 
     16 C15        -3.2300    2.5170    3.5590 C.3     1     ****    0.1460 
     17 C16        -4.5630    3.1630    4.0030 C.3     1     ****   -0.0610 
     18 C17        -5.7470    2.4920    3.2750 C.3     1     ****   -0.0710 
     19 C18        -7.0760    3.2460    3.3740 C.3     1     ****   -0.0710 
     20 C19        -4.7870    3.0410    5.5290 C.3     1     ****   -0.0770 
     21 O2         -2.7930    1.5160    4.4940 O.3     1     ****   -0.4370 
     22 C20        -3.1030    0.2190    4.2160 C.2     1     ****    0.6340 
     23 O3         -3.7140   -0.1920    3.2390 O.2     1     ****   -0.5440 
     24 C21        -2.5790   -0.6640    5.3080 C.3     1     ****   -0.1510 
     25 H1         -5.4250    8.1180    0.8400 H       1     ****    0.0370 
     26 H2         -4.6780    6.5540    0.4950 H       1     ****    0.0350 
     27 H3         -6.4420    6.6960    0.5610 H       1     ****    0.0380 
     28 H4         -4.4640    7.1090    2.8460 H       1     ****    0.0520 
     29 H5         -6.3370    7.4030    4.3670 H       1     ****    0.0600 
     30 H6         -6.4530    8.5700    3.0610 H       1     ****    0.0570 
     31 H7         -8.8460    8.9180    3.2070 H       1     ****    0.1480 
     32 H8        -11.5340    5.6240    3.1640 H       1     ****    0.0740 
     33 H9        -10.6640    5.6490    1.6130 H       1     ****    0.0700 
     34 H10        -9.4970    5.1900    4.4140 H       1     ****    0.0510 
     35 H11        -9.6410    4.0070    3.1150 H       1     ****    0.0520 
     36 H12        -8.0870    5.2830    1.7080 H       1     ****    0.0690 
     37 H13        -6.8750    5.0170    4.5300 H       1     ****    0.0520 
     38 H14        -5.5580    4.7300    1.7620 H       1     ****    0.0580 
     39 H15        -4.3710    5.3100    4.5460 H       1     ****    0.0530 
     40 H16        -3.1300    4.6780    1.8710 H       1     ****    0.0460 
     41 H17        -2.5730    5.7780    3.1460 H       1     ****    0.0460 
     42 H18        -1.3390    3.4370    2.9610 H       1     ****    0.0520 
     43 H19        -1.8940    3.9100    4.5690 H       1     ****    0.0620 
     44 H20        -3.2560    2.0960    2.5410 H       1     ****    0.0790 
     45 H21        -5.5010    2.3970    2.2080 H       1     ****    0.0440 
     46 H22        -5.8920    1.4650    3.6320 H       1     ****    0.0580 
     47 H23        -7.6250    2.9040    4.2600 H       1     ****    0.0410 
     48 H24        -7.6830    2.9600    2.5070 H       1     ****    0.0420 
     49 H25        -3.9280    3.4290    6.0880 H       1     ****    0.0420 
     50 H26        -5.6670    3.6010    5.8590 H       1     ****    0.0360 
     51 H27        -4.9390    1.9990    5.8310 H       1     ****    0.0340 
     52 H28        -2.8240   -1.7060    5.0810 H       1     ****    0.0760 
     53 H29        -1.4920   -0.5680    5.3720 H       1     ****    0.0760 
     54 H30        -3.0470   -0.3950    6.2580 H       1     ****    0.0750 
@<TRIPOS>BOND
     1  2 1 1
     2  3 2 1
     3  4 3 1
     4  5 4 2
     5  6 5 1
     6  7 6 2
     7  8 6 1
     8  9 8 1
     9 10 4 1
    10 10 9 1
    11 11 10 1
    12 12 2 1
    13 12 11 1
    14 13 12 1
    15 14 13 1
    16 15 14 1
    17 16 15 1
    18 17 13 1
    19 17 16 1
    20 18 17 1
    21 19 11 1
    22 19 18 1
    23 20 17 1
    24 21 16 1
    25 22 21 1
    26 23 22 2
    27 24 22 1
    28 25 1 1
    29 26 1 1
    30 27 1 1
    31 28 2 1
    32 29 3 1
    33 30 3 1
    34 31 5 1
    35 32 8 1
    36 33 8 1
    37 34 9 1
    38 35 9 1
    39 36 10 1
    40 37 11 1
    41 38 12 1
    42 39 13 1
    43 40 14 1
    44 41 14 1
    45 42 15 1
    46 43 15 1
    47 44 16 1
    48 45 18 1
    49 46 18 1
    50 47 19 1
    51 48 19 1
    52 49 20 1
    53 50 20 1
    54 51 20 1
    55 52 24 1
    56 53 24 1
    57 54 24 1
@<TRIPOS>SUBSTRUCTURE
1     ****    1
@<TRIPOS>MOLECULE
ZINC00000880
24 24 1 0 0 
SMALL
USER_CHARGES


@<TRIPOS>ATOM
      1 C1          4.9470   -9.1410   -1.6840 C.3     1     ****   -0.1800 
      2 C2          4.4070   -8.2560   -0.5890 C.2     1     ****    0.6570 
      3 O1          4.4010   -8.6340    0.5780 O.2     1     ****   -0.6080 
      4 N1          3.9600   -7.0440   -1.0970 N.am    1     ****   -0.4590 
      5 C3          3.3890   -5.9680   -0.3780 C.ar    1     ****    0.0100 
      6 C4          3.1740   -5.9700    1.0020 C.ar    1     ****   -0.1480 
      7 C5          2.6010   -4.8590    1.6310 C.ar    1     ****   -0.1220 
      8 C6          2.2400   -3.7240    0.8950 C.ar    1     ****   -0.0160 
      9 C7          2.4480   -3.7260   -0.4880 C.ar    1     ****   -0.1150 
     10 C8          3.0190   -4.8360   -1.1170 C.ar    1     ****   -0.1810 
     11 C9          1.6100   -2.5390    1.5730 C.3     1     ****   -0.1810 
     12 C10         0.0930   -2.6960    1.5750 C.2     1     ****    0.9220 
     13 O2         -0.5000   -2.2000    0.5750 O.co2   1     ****   -0.8380 
     14 H1          4.0500   -6.9010   -2.1000 H       1     ****    0.3030 
     15 H2          5.2740  -10.0950   -1.2620 H       1     ****    0.0690 
     16 H3          4.1680   -9.3330   -2.4270 H       1     ****    0.0520 
     17 H4          5.8010   -8.6560   -2.1660 H       1     ****    0.0510 
     18 H5          3.4320   -6.8180    1.6270 H       1     ****    0.1540 
     19 H6          2.4360   -4.8870    2.7060 H       1     ****    0.1410 
     20 H7          2.1640   -2.8640   -1.0860 H       1     ****    0.1430 
     21 H8          3.1680   -4.8020   -2.1940 H       1     ****    0.1060 
     22 H9          1.9820   -2.4450    2.6010 H       1     ****    0.0370 
     23 H10         1.8940   -1.6120    1.0610 H       1     ****    0.0350 
     24 O3         -0.3860   -3.2850    2.5850 O.co2   1     ****   -0.8320 
@<TRIPOS>BOND
     1  2 1 1
     2  3 2 2
     3  4 2 1
     4  5 4 1
     5  6 5 ar
     6  7 6 ar
     7  8 7 ar
     8  9 8 ar
     9 10 5 ar
    10 10 9 ar
    11 11 8 1
    12 12 11 1
    13 13 12 1
    14 14 4 1
    15 15 1 1
    16 16 1 1
    17 17 1 1
    18 18 6 1
    19 19 7 1
    20 20 9 1
    21 21 10 1
    22 22 11 1
    23 23 11 1
    24 24 12 2
@<TRIPOS>SUBSTRUCTURE
1     ****    1
@<TRIPOS>MOLECULE
ZINC00000909
31 32 1 0 0 
SMALL
USER_CHARGES


@<TRIPOS>ATOM
      1 C1          9.3310    2.7210    3.9700 C.ar    1     ****   -0.1210 
      2 C2          9.7820    2.4590    2.6780 C.ar    1     ****   -0.1540 
      3 C3          8.8730    2.3760    1.6220 C.ar    1     ****   -0.0860 
      4 C4          7.5060    2.5650    1.8600 C.ar    1     ****   -0.1550 
      5 C5          7.0540    2.8160    3.1600 C.ar    1     ****   -0.0820 
      6 C6          7.9690    2.8970    4.2120 C.ar    1     ****   -0.1530 
      7 C7          6.5630    2.4570    0.7190 C.2     1     ****    0.6090 
      8 O1          6.8520    1.7650   -0.2520 O.2     1     ****   -0.5660 
      9 C8          5.2670    3.1760    0.7290 C.ar    1     ****   -0.2840 
     10 C9          5.2850    4.5580    0.9600 C.ar    1     ****   -0.0810 
     11 C10         4.0930    5.2710    0.9760 C.ar    1     ****   -0.2070 
     12 C11         2.8860    4.6080    0.7720 C.ar    1     ****   -0.0870 
     13 C12         2.8500    3.2210    0.5340 C.ar    1     ****   -0.0890 
     14 C13         4.0610    2.4920    0.4650 C.ar    1     ****    0.2390 
     15 N1          4.0480    1.1070    0.2840 N.pl3   1     ****   -0.8360 
     16 C14         1.5010    2.5650    0.3480 C.3     1     ****   -0.1730 
     17 C15         1.2570    2.2730   -1.1280 C.2     1     ****    0.9170 
     18 O2          1.4530    1.0720   -1.4730 O.co2   1     ****   -0.8600 
     19 H1          3.2110    0.6730   -0.0900 H       1     ****    0.4700 
     20 H2          4.9240    0.6370    0.0900 H       1     ****    0.4040 
     21 H3         10.0400    2.7830    4.7910 H       1     ****    0.1200 
     22 H4         10.8430    2.3170    2.4910 H       1     ****    0.1240 
     23 H5          9.2430    2.1710    0.6210 H       1     ****    0.1480 
     24 H6          5.9970    2.9370    3.3810 H       1     ****    0.1570 
     25 H7          7.6180    3.0920    5.2210 H       1     ****    0.1260 
     26 H8          6.2200    5.0880    1.1220 H       1     ****    0.1140 
     27 H9          4.1010    6.3430    1.1540 H       1     ****    0.1140 
     28 H10         1.9620    5.1810    0.8000 H       1     ****    0.1290 
     29 H11         1.4390    1.6500    0.9490 H       1     ****    0.0390 
     30 H12         0.6980    3.2140    0.7200 H       1     ****    0.0390 
     31 O3          0.8690    3.2570   -1.8180 O.co2   1     ****   -0.8130 
@<TRIPOS>BOND
     1  2 1 ar
     2  3 2 ar
     3  4 3 ar
     4  5 4 ar
     5  6 1 ar
     6  6 5 ar
     7  7 4 1
     8  8 7 2
     9  9 7 1
    10 10 9 ar
    11 11 10 ar
    12 12 11 ar
    13 13 12 ar
    14 14 9 ar
    15 14 13 ar
    16 15 14 1
    17 16 13 1
    18 17 16 1
    19 18 17 1
    20 19 15 1
    21 20 15 1
    22 21 1 1
    23 22 2 1
    24 23 3 1
    25 24 5 1
    26 25 6 1
    27 26 10 1
    28 27 11 1
    29 28 12 1
    30 29 16 1
    31 30 16 1
    32 31 17 2
@<TRIPOS>SUBSTRUCTURE
1     ****    1
@<TRIPOS>MOLECULE
ZINC00000951
26 26 1 0 0 
SMALL
USER_CHARGES


@<TRIPOS>ATOM
      1 C1          3.5960   -8.3880    1.2160 C.ar    1     ****   -0.1460 
      2 C2          2.5090   -7.8350    1.8830 C.ar    1     ****   -0.1100 
      3 C3          1.7910   -6.7820    1.3050 C.ar    1     ****   -0.1730 
      4 C4          2.1340   -6.2550    0.0450 C.ar    1     ****    0.1170 
      5 C5          3.2430   -6.8340   -0.6010 C.ar    1     ****   -0.1410 
      6 C6          3.9650   -7.8860   -0.0260 C.ar    1     ****   -0.1130 
      7 N1          1.4210   -5.2010   -0.5470 N.pl3   1     ****   -0.6400 
      8 C7          1.0070   -5.3690   -1.9510 C.3     1     ****    0.1760 
      9 C8         -0.2350   -6.2500   -2.0550 C.3     1     ****   -0.0060 
     10 CL1        -0.7330   -6.4240   -3.7550 Cl      1     ****   -0.1830 
     11 C9          0.6750   -4.2770    0.3250 C.3     1     ****    0.1720 
     12 C10         0.5220   -2.8870   -0.2860 C.3     1     ****    0.0290 
     13 CL2        -0.1840   -1.7610    0.9000 Cl      1     ****   -0.1870 
     14 H1          4.1550   -9.2040    1.6640 H       1     ****    0.1340 
     15 H2          2.2130   -8.2230    2.8530 H       1     ****    0.1330 
     16 H3          0.9370   -6.3970    1.8570 H       1     ****    0.1330 
     17 H4          3.5870   -6.4540   -1.5600 H       1     ****    0.1390 
     18 H5          4.8190   -8.3060   -0.5510 H       1     ****    0.1340 
     19 H6          0.8050   -4.3920   -2.4010 H       1     ****    0.0640 
     20 H7          1.8130   -5.7890   -2.5620 H       1     ****    0.0720 
     21 H8         -0.0500   -7.2540   -1.6610 H       1     ****    0.0750 
     22 H9         -1.0790   -5.8180   -1.5080 H       1     ****    0.0660 
     23 H10        -0.3100   -4.6980    0.5580 H       1     ****    0.0300 
     24 H11         1.2160   -4.1550    1.2730 H       1     ****    0.0760 
     25 H12         1.4890   -2.4810   -0.5990 H       1     ****    0.0820 
     26 H13        -0.1490   -2.8950   -1.1490 H       1     ****    0.0660 
@<TRIPOS>BOND
     1  2 1 ar
     2  3 2 ar
     3  4 3 ar
     4  5 4 ar
     5  6 1 ar
     6  6 5 ar
     7  7 4 1
     8  8 7 1
     9  9 8 1
    10 10 9 1
    11 11 7 1
    12 12 11 1
    13 13 12 1
    14 14 1 1
    15 15 2 1
    16 16 3 1
    17 17 5 1
    18 18 6 1
    19 19 8 1
    20 20 8 1
    21 21 9 1
    22 22 9 1
    23 23 11 1
    24 24 11 1
    25 25 12 1
    26 26 12 1
@<TRIPOS>SUBSTRUCTURE
1     ****    1
@<TRIPOS>MOLECULE
ZINC00000980
22 22 1 0 0 
SMALL
USER_CHARGES


@<TRIPOS>ATOM
      1 C1          4.2860   -9.5050    0.8150 C.3     1     ****   -0.1800 
      2 C2          2.9940   -8.7600    0.6130 C.2     1     ****    0.6190 
      3 O1          1.9160   -9.2140    0.9890 O.2     1     ****   -0.5560 
      4 N1          3.1730   -7.5350    0.0040 N.am    1     ****   -0.3670 
      5 N2          2.0700   -6.7410   -0.2360 N.am    1     ****   -0.4550 
      6 C3          2.2340   -5.5860   -0.9780 C.2     1     ****    0.5720 
      7 O2          3.3110   -5.2000   -1.4260 O.2     1     ****   -0.5730 
      8 C4          1.0130   -4.7700   -1.2120 C.ar    1     ****    0.3590 
      9 C5         -0.2740   -5.2900   -1.1140 C.ar    1     ****   -0.2070 
     10 C6         -1.3460   -4.4360   -1.3630 C.ar    1     ****   -0.0950 
     11 C7         -1.1110   -3.1090   -1.7040 C.ar    1     ****   -0.2280 
     12 C8          0.2040   -2.6860   -1.7870 C.ar    1     ****    0.3930 
     13 N3          1.2700   -3.4830   -1.5530 N.ar    1     ****   -0.6320 
     14 H1          4.0770   -7.1740   -0.2870 H       1     ****    0.3010 
     15 H2          1.1970   -7.0430    0.1860 H       1     ****    0.3450 
     16 H3          4.0930  -10.5810    0.7880 H       1     ****    0.0790 
     17 H4          5.0070   -9.2640    0.0290 H       1     ****    0.0650 
     18 H5          4.7080   -9.2350    1.7870 H       1     ****    0.0720 
     19 H6         -0.4730   -6.3270   -0.8710 H       1     ****    0.1610 
     20 H7         -2.3640   -4.8080   -1.2960 H       1     ****    0.1470 
     21 H8         -1.9310   -2.4290   -1.9020 H       1     ****    0.1490 
     22 H9          0.4430   -1.6610   -2.0530 H       1     ****    0.0310 
@<TRIPOS>BOND
     1  2 1 1
     2  3 2 2
     3  4 2 1
     4  5 4 1
     5  6 5 1
     6  7 6 2
     7  8 6 1
     8  9 8 ar
     9 10 9 ar
    10 11 10 ar
    11 12 11 ar
    12 13 8 ar
    13 13 12 ar
    14 14 4 1
    15 15 5 1
    16 16 1 1
    17 17 1 1
    18 18 1 1
    19 19 9 1
    20 20 10 1
    21 21 11 1
    22 22 12 1
@<TRIPOS>SUBSTRUCTURE
1     ****    1
@<TRIPOS>MOLECULE
ZINC00001010
23 23 1 0 0 
SMALL
USER_CHARGES


@<TRIPOS>ATOM
      1 C1          6.5050   -9.0010   -1.5890 C.3     1     ****   -0.1250 
      2 C2          6.4090   -7.7170   -0.7880 C.3     1     ****    0.1400 
      3 O1          5.0460   -7.2600   -0.7540 O.3     1     ****   -0.4450 
      4 C3          4.2540   -7.7550    0.2300 C.2     1     ****    0.6560 
      5 O2          4.5810   -8.5560    1.0920 O.2     1     ****   -0.5570 
      6 C4          2.8860   -7.1850    0.1270 C.ar    1     ****   -0.1900 
      7 C5          2.5250   -6.2720   -0.8700 C.ar    1     ****   -0.0260 
      8 C6          1.2220   -5.7670   -0.9210 C.ar    1     ****   -0.2220 
      9 C7          0.2590   -6.1660    0.0120 C.ar    1     ****    0.1920 
     10 C8          0.6300   -7.0730    1.0100 C.ar    1     ****   -0.2200 
     11 C9          1.9310   -7.5820    1.0680 C.ar    1     ****   -0.0290 
     12 N1         -1.0260   -5.6490   -0.0320 N.pl3   1     ****   -0.8360 
     13 H1         -1.3000   -5.0200   -0.7750 H       1     ****    0.4060 
     14 H2         -1.7280   -5.9650    0.6230 H       1     ****    0.4060 
     15 H3          7.5450   -9.3320   -1.6680 H       1     ****    0.0440 
     16 H4          5.9180   -9.7990   -1.1220 H       1     ****    0.0560 
     17 H5          6.1020   -8.8570   -2.5970 H       1     ****    0.0430 
     18 H6          6.8050   -7.8470    0.2260 H       1     ****    0.0630 
     19 H7          7.0000   -6.9320   -1.2710 H       1     ****    0.0610 
     20 H8          3.2370   -5.9350   -1.6190 H       1     ****    0.1530 
     21 H9          0.9640   -5.0560   -1.7020 H       1     ****    0.1370 
     22 H10        -0.0950   -7.3930    1.7550 H       1     ****    0.1380 
     23 H11         2.1800   -8.2880    1.8570 H       1     ****    0.1550 
@<TRIPOS>BOND
     1  2 1 1
     2  3 2 1
     3  4 3 1
     4  5 4 2
     5  6 4 1
     6  7 6 ar
     7  8 7 ar
     8  9 8 ar
     9 10 9 ar
    10 11 6 ar
    11 11 10 ar
    12 12 9 1
    13 13 12 1
    14 14 12 1
    15 15 1 1
    16 16 1 1
    17 17 1 1
    18 18 2 1
    19 19 2 1
    20 20 7 1
    21 21 8 1
    22 22 10 1
    23 23 11 1
@<TRIPOS>SUBSTRUCTURE
1     ****    1
@<TRIPOS>MOLECULE
ZINC00001016
28 29 1 0 0 
SMALL
USER_CHARGES


@<TRIPOS>ATOM
      1 C1          4.7600   -9.7890    0.4180 C.ar    1     ****   -0.0920 
      2 C2          4.4760   -9.5300    1.7570 C.ar    1     ****   -0.1460 
      3 C3          4.3270   -8.2140    2.2000 C.ar    1     ****   -0.0690 
      4 C4          4.4650   -7.1480    1.3010 C.ar    1     ****   -0.1410 
      5 C5          4.7470   -7.4140   -0.0450 C.ar    1     ****   -0.0640 
      6 C6          4.8950   -8.7330   -0.4820 C.ar    1     ****   -0.1460 
      7 C7          4.2930   -5.7680    1.8210 C.2     1     ****    0.6310 
      8 O1          3.9100   -5.5220    2.9540 O.2     1     ****   -0.4960 
      9 O2          4.6340   -4.8620    0.8660 O.3     1     ****   -0.2130 
     10 O3          4.4180   -3.5400    1.4430 O.3     1     ****   -0.2120 
     11 C8          3.3780   -2.9810    0.7690 C.2     1     ****    0.6310 
     12 O4          2.7610   -3.4800   -0.1600 O.2     1     ****   -0.4960 
     13 C9          3.0790   -1.6330    1.3150 C.ar    1     ****   -0.1410 
     14 C10         3.6840   -1.1440    2.4800 C.ar    1     ****   -0.0640 
     15 C11         3.3630    0.1310    2.9520 C.ar    1     ****   -0.1460 
     16 C12         2.4410    0.9210    2.2680 C.ar    1     ****   -0.0920 
     17 C13         1.8350    0.4380    1.1100 C.ar    1     ****   -0.1460 
     18 C14         2.1510   -0.8360    0.6330 C.ar    1     ****   -0.0700 
     19 H1          4.8750  -10.8130    0.0750 H       1     ****    0.1380 
     20 H2          4.3700  -10.3530    2.4580 H       1     ****    0.1410 
     21 H3          4.1060   -8.0380    3.2500 H       1     ****    0.1560 
     22 H4          4.8520   -6.6160   -0.7750 H       1     ****    0.1590 
     23 H5          5.1130   -8.9360   -1.5260 H       1     ****    0.1420 
     24 H6          4.4020   -1.7350    3.0430 H       1     ****    0.1590 
     25 H7          3.8330    0.5070    3.8570 H       1     ****    0.1420 
     26 H8          2.1940    1.9120    2.6380 H       1     ****    0.1380 
     27 H9          1.1150    1.0540    0.5770 H       1     ****    0.1410 
     28 H10         1.6650   -1.1900   -0.2720 H       1     ****    0.1560 
@<TRIPOS>BOND
     1  2 1 ar
     2  3 2 ar
     3  4 3 ar
     4  5 4 ar
     5  6 1 ar
     6  6 5 ar
     7  7 4 1
     8  8 7 2
     9  9 7 1
    10 10 9 1
    11 11 10 1
    12 12 11 2
    13 13 11 1
    14 14 13 ar
    15 15 14 ar
    16 16 15 ar
    17 17 16 ar
    18 18 13 ar
    19 18 17 ar
    20 19 1 1
    21 20 2 1
    22 21 3 1
    23 22 5 1
    24 23 6 1
    25 24 14 1
    26 25 15 1
    27 26 16 1
    28 27 17 1
    29 28 18 1
@<TRIPOS>SUBSTRUCTURE
1     ****    1
