@<TRIPOS>MOLECULE
ZINC00000710
23 25 1 0 0 
SMALL
USER_CHARGES


@<TRIPOS>ATOM
      1 C1          3.6040   -7.7640    1.0160 C.ar    1     ****   -0.0750 
      2 C2          2.5980   -6.9700    1.5670 C.ar    1     ****   -0.1480 
      3 C3          2.1600   -5.8360    0.8840 C.ar    1     ****    0.1420 
      4 C4          2.7110   -5.5140   -0.3680 C.ar    1     ****   -0.2000 
      5 C5          3.7130   -6.3090   -0.9250 C.ar    1     ****   -0.0370 
      6 C6          4.1590   -7.4300   -0.2220 C.ar    1     ****   -0.0200 
      7 CL1         5.3970   -8.4210   -0.8950 Cl      1     ****   -0.0790 
      8 C7          2.1640   -4.3570   -1.1170 C.2     1     ****    0.6730 
      9 O1          2.4380   -4.1620   -2.2920 O.2     1     ****   -0.5400 
     10 N1          1.3230   -3.6270   -0.3480 N.am    1     ****   -0.2540 
     11 C8          1.1900   -3.7320    1.0710 C.3     1     ****    0.2280 
     12 O2          1.1510   -5.1030    1.4700 O.3     1     ****   -0.3320 
     13 C9         -0.1290   -3.0540    1.3390 C.3     1     ****   -0.1130 
     14 C10        -0.0990   -1.9710    0.2770 C.3     1     ****    0.1020 
     15 O3          0.6070   -2.5290   -0.8500 O.3     1     ****   -0.2360 
     16 H1          3.9460   -8.6420    1.5590 H       1     ****    0.1550 
     17 H2          2.1650   -7.2360    2.5270 H       1     ****    0.1600 
     18 H3          4.1380   -6.0670   -1.8960 H       1     ****    0.1740 
     19 H4          1.9990   -3.2160    1.6140 H       1     ****    0.0970 
     20 H5         -0.9620   -3.7440    1.1580 H       1     ****    0.0880 
     21 H6         -0.2310   -2.6680    2.3560 H       1     ****    0.0770 
     22 H7         -1.1020   -1.6680   -0.0340 H       1     ****    0.0670 
     23 H8          0.4530   -1.0880    0.6170 H       1     ****    0.0700 
@<TRIPOS>BOND
     1  2 1 ar
     2  3 2 ar
     3  4 3 ar
     4  5 4 ar
     5  6 1 ar
     6  6 5 ar
     7  7 6 1
     8  8 4 1
     9  9 8 2
    10 10 8 1
    11 11 10 1
    12 12 3 1
    13 12 11 1
    14 13 11 1
    15 14 13 1
    16 15 10 1
    17 15 14 1
    18 16 1 1
    19 17 2 1
    20 18 5 1
    21 19 11 1
    22 20 13 1
    23 21 13 1
    24 22 14 1
    25 23 14 1
@<TRIPOS>SUBSTRUCTURE
1     ****    1
@<TRIPOS>MOLECULE
ZINC00000896
14 15 1 0 0 
SMALL
USER_CHARGES


@<TRIPOS>ATOM
      1 C1          4.6780    3.1510    2.9860 C.2     1     ****    0.3820 
      2 C2          4.4150    2.7990    4.3160 C.2     1     ****   -0.3710 
      3 C3          3.0960    2.4110    4.3300 C.2     1     ****    0.1640 
      4 N1          2.6540    2.5460    3.0490 N.pl3   1     ****    0.0030 
      5 N2          3.6020    2.9990    2.2020 N.2     1     ****   -0.5100 
      6 N3          2.3530    1.9770    5.3760 N.2     1     ****   -0.6130 
      7 C4          3.0430    1.9500    6.4790 C.2     1     ****    0.5090 
      8 N4          4.3840    2.3150    6.6090 N.am    1     ****   -0.4960 
      9 C5          5.1680    2.7650    5.5430 C.2     1     ****    0.7470 
     10 O1          6.3450    3.0910    5.6300 O.2     1     ****   -0.6130 
     11 H1          1.7300    2.3520    2.6840 H       1     ****    0.3380 
     12 H2          4.8220    2.2540    7.5220 H       1     ****    0.3400 
     13 H3          5.5980    3.5110    2.5470 H       1     ****    0.0610 
     14 H4          2.5940    1.6230    7.4300 H       1     ****    0.0580 
@<TRIPOS>BOND
     1  2 1 1
     2  3 2 ar
     3  4 3 1
     4  5 1 2
     5  5 4 1
     6  6 3 1
     7  7 6 2
     8  8 7 1
     9  9 2 1
    10  9 8 1
    11 10 9 2
    12 11 4 1
    13 12 8 1
    14 13 1 1
    15 14 7 1
@<TRIPOS>SUBSTRUCTURE
1     ****    1
@<TRIPOS>MOLECULE
ZINC00001052
15 16 1 0 0 
SMALL
USER_CHARGES


@<TRIPOS>ATOM
      1 C1         -1.3080   11.4590    8.4860 C.ar    1     ****   -0.1310 
      2 C2         -0.7330   10.7580    7.4510 C.ar    1     ****    0.0220 
      3 C3          0.6090   10.4520    7.4070 C.ar    1     ****    0.0410 
      4 C4          1.4680   10.8370    8.4130 C.ar    1     ****   -0.0630 
      5 C5          0.9220   11.5540    9.4880 C.ar    1     ****   -0.0370 
      6 C6         -0.4590   11.8640    9.5250 C.ar    1     ****    0.0500 
      7 CL1        -1.1710   12.7460   10.8320 Cl      1     ****   -0.0550 
      8 BR1         2.1150   12.0800   10.8730 Br      1     ****   -0.0460 
      9 O1          0.9540    9.7410    6.2680 O.3     1     ****   -0.2850 
     10 C7         -0.2750    9.6230    5.5970 C.2     1     ****    0.8200 
     11 O2         -0.3990    9.0470    4.5240 O.2     1     ****   -0.5620 
     12 N1         -1.2880   10.2370    6.3140 N.am    1     ****   -0.4680 
     13 H1         -2.2620   10.2910    6.0470 H       1     ****    0.3690 
     14 H2         -2.3690   11.6850    8.4920 H       1     ****    0.1660 
     15 H3          2.5220   10.5880    8.3640 H       1     ****    0.1780 
@<TRIPOS>BOND
     1  2 1 ar
     2  3 2 ar
     3  4 3 ar
     4  5 4 ar
     5  6 1 ar
     6  6 5 ar
     7  7 6 1
     8  8 5 1
     9  9 3 1
    10 10 9 1
    11 11 10 2
    12 12 2 1
    13 12 10 1
    14 13 12 1
    15 14 1 1
    16 15 4 1
@<TRIPOS>SUBSTRUCTURE
1     ****    1
@<TRIPOS>MOLECULE
ZINC00001098
17 18 1 0 0 
SMALL
USER_CHARGES


@<TRIPOS>ATOM
      1 C1          4.1940   -9.7900   -0.3090 C.ar    1     ****   -0.1630 
      2 C2          2.9600  -10.1280   -0.8700 C.ar    1     ****   -0.0690 
      3 C3          2.0120   -9.1380   -1.1240 C.ar    1     ****   -0.1500 
      4 C4          2.3100   -7.8120   -0.8140 C.ar    1     ****    0.1520 
      5 C5          3.5340   -7.4680   -0.2560 C.ar    1     ****   -0.2140 
      6 C6          4.4850   -8.4590    0.0000 C.ar    1     ****   -0.0370 
      7 C7          3.8060   -6.0590    0.0550 C.2     1     ****    0.7320 
      8 O1          4.8710   -5.7080    0.5480 O.2     1     ****   -0.5880 
      9 N1          2.7780   -5.1860   -0.2490 N.am    1     ****   -0.5980 
     10 C8          1.5480   -5.5030   -0.8050 C.2     1     ****    0.8330 
     11 O2          0.6880   -4.6580   -1.0440 O.2     1     ****   -0.5760 
     12 O3          1.3230   -6.8540   -1.0890 O.3     1     ****   -0.3040 
     13 H1          2.9400   -4.2060   -0.0430 H       1     ****    0.3590 
     14 H2          4.9300  -10.5650   -0.1120 H       1     ****    0.1480 
     15 H3          2.7390  -11.1650   -1.1080 H       1     ****    0.1460 
     16 H4          1.0540   -9.4030   -1.5600 H       1     ****    0.1650 
     17 H5          5.4500   -8.2140    0.4350 H       1     ****    0.1650 
@<TRIPOS>BOND
     1  2 1 ar
     2  3 2 ar
     3  4 3 ar
     4  5 4 ar
     5  6 1 ar
     6  6 5 ar
     7  7 5 1
     8  8 7 2
     9  9 7 1
    10 10 9 1
    11 11 10 2
    12 12 4 1
    13 12 10 1
    14 13 9 1
    15 14 1 1
    16 15 2 1
    17 16 3 1
    18 17 6 1
@<TRIPOS>SUBSTRUCTURE
1     ****    1
@<TRIPOS>MOLECULE
ZINC00001139
15 16 1 0 0 
SMALL
USER_CHARGES


@<TRIPOS>ATOM
      1 C1         -0.1040   -2.6070   -2.3630 C.ar    1     ****   -0.1290 
      2 C2         -0.3610   -1.3290   -2.8700 C.ar    1     ****   -0.0850 
      3 C3          0.6550   -0.4010   -2.7910 C.ar    1     ****    0.0430 
      4 C4          1.8760   -0.7180   -2.2340 C.ar    1     ****    0.0090 
      5 C5          2.1680   -1.9620   -1.7240 C.ar    1     ****   -0.1270 
      6 C6          1.1500   -2.9160   -1.7960 C.ar    1     ****    0.0280 
      7 CL1         1.4300   -4.5010   -1.1810 Cl      1     ****   -0.0810 
      8 N1          2.6420    0.4140   -2.3130 N.am    1     ****   -0.4700 
      9 C7          1.8770    1.3980   -2.9150 C.2     1     ****    0.8190 
     10 O1          2.2340    2.5450   -3.1510 O.2     1     ****   -0.5700 
     11 O2          0.5980    0.9110   -3.2350 O.3     1     ****   -0.2880 
     12 H1          3.5950    0.5120   -1.9890 H       1     ****    0.3670 
     13 H2         -0.8860   -3.3620   -2.4110 H       1     ****    0.1570 
     14 H3         -1.3220   -1.0830   -3.3080 H       1     ****    0.1650 
     15 H4          3.1360   -2.1850   -1.2910 H       1     ****    0.1610 
@<TRIPOS>BOND
     1  2 1 ar
     2  3 2 ar
     3  4 3 ar
     4  5 4 ar
     5  6 1 ar
     6  6 5 ar
     7  7 6 1
     8  8 4 1
     9  9 8 1
    10 10 9 2
    11 11 3 1
    12 11 9 1
    13 12 8 1
    14 13 1 1
    15 14 2 1
    16 15 5 1
@<TRIPOS>SUBSTRUCTURE
1     ****    1
@<TRIPOS>MOLECULE
ZINC00001555
15 16 1 0 0 
SMALL
USER_CHARGES


@<TRIPOS>ATOM
      1 C1          5.4870   -9.2570   -0.6580 C.2     1     ****   -0.2790 
      2 C2          4.4380  -10.1910   -0.4020 C.2     1     ****    0.2980 
      3 N1          3.4440   -9.6860    0.3530 N.2     1     ****   -0.4850 
      4 N2          3.8800   -8.4480    0.5600 N.pl3   1     ****    0.0470 
      5 C3          5.0660   -8.1380   -0.0040 C.2     1     ****    0.0270 
      6 N3          5.3890   -6.8720    0.2780 N.pl3   1     ****   -0.6390 
      7 C4          4.3430   -6.2560    1.1040 C.3     1     ****    0.1310 
      8 C5          3.2780   -7.3630    1.3040 C.3     1     ****    0.0350 
      9 H1          6.2190   -6.3680   -0.0110 H       1     ****    0.3830 
     10 H2          6.3920   -9.4020   -1.2280 H       1     ****    0.1700 
     11 H3          4.3650  -11.2160   -0.7380 H       1     ****    0.0410 
     12 H4          4.7540   -5.9300    2.0640 H       1     ****    0.0770 
     13 H5          3.9130   -5.3870    0.5940 H       1     ****    0.0510 
     14 H6          2.3160   -7.1130    0.8520 H       1     ****    0.0700 
     15 H7          3.1720   -7.6650    2.3490 H       1     ****    0.0710 
@<TRIPOS>BOND
     1  2 1 1
     2  3 2 2
     3  4 3 1
     4  5 1 2
     5  5 4 1
     6  6 5 1
     7  7 6 1
     8  8 4 1
     9  8 7 1
    10  9 6 1
    11 10 1 1
    12 11 2 1
    13 12 7 1
    14 13 7 1
    15 14 8 1
    16 15 8 1
@<TRIPOS>SUBSTRUCTURE
1     ****    1
@<TRIPOS>MOLECULE
ZINC00001621
18 18 1 0 0 
SMALL
USER_CHARGES


@<TRIPOS>ATOM
      1 C1          2.5530   -8.4700   -1.2990 C.3     1     ****    0.0260 
      2 C2          2.4040   -7.0140   -1.7710 C.3     1     ****    0.0260 
      3 C3          2.1300   -6.0530   -0.6010 C.3     1     ****    0.0260 
      4 C4          3.1760   -6.1930    0.5180 C.3     1     ****    0.0260 
      5 C5          3.3260   -7.6490    0.9900 C.3     1     ****    0.0260 
      6 C6          3.6000   -8.6100   -0.1800 C.3     1     ****    0.0260 
      7 CL1         3.6150  -10.3120    0.4250 Cl      1     ****   -0.1310 
      8 CL2         4.6700   -7.7600    2.1910 Cl      1     ****   -0.1310 
      9 CL3         2.7110   -5.1480    1.9160 Cl      1     ****   -0.1310 
     10 CL4         2.1150   -4.3510   -1.2070 Cl      1     ****   -0.1310 
     11 CL5         1.0600   -6.9020   -2.9730 Cl      1     ****   -0.1310 
     12 CL6         3.0190   -9.5150   -2.6970 Cl      1     ****   -0.1310 
     13 H1          1.5840   -8.8450   -0.9460 H       1     ****    0.1050 
     14 H2          3.3140   -6.7020   -2.2990 H       1     ****    0.1050 
     15 H3          1.1280   -6.2430   -0.1950 H       1     ****    0.1050 
     16 H4          4.1460   -5.8180    0.1640 H       1     ****    0.1050 
     17 H5          2.4160   -7.9610    1.5170 H       1     ****    0.1050 
     18 H6          4.6010   -8.4200   -0.5870 H       1     ****    0.1050 
@<TRIPOS>BOND
     1  2 1 1
     2  3 2 1
     3  4 3 1
     4  5 4 1
     5  6 1 1
     6  6 5 1
     7  7 6 1
     8  8 5 1
     9  9 4 1
    10 10 3 1
    11 11 2 1
    12 12 1 1
    13 13 1 1
    14 14 2 1
    15 15 3 1
    16 16 4 1
    17 17 5 1
    18 18 6 1
@<TRIPOS>SUBSTRUCTURE
1     ****    1
@<TRIPOS>MOLECULE
ZINC00001738
36 40 1 0 0 
SMALL
USER_CHARGES


@<TRIPOS>ATOM
      1 C1          3.1890    2.7110   -8.8140 C.ar    1     ****   -0.1180 
      2 C2          2.0970    1.8720   -9.0140 C.ar    1     ****   -0.1260 
      3 C3          1.1090    1.7690   -8.0350 C.ar    1     ****   -0.1190 
      4 C4          1.1990    2.5090   -6.8450 C.ar    1     ****   -0.1040 
      5 C5          2.3030    3.3570   -6.6440 C.ar    1     ****   -0.0620 
      6 C6          3.2940    3.4470   -7.6350 C.ar    1     ****   -0.1230 
      7 C7          2.4660    4.1560   -5.3740 C.3     1     ****    0.0160 
      8 C8          1.2560    4.1640   -4.5040 C.2     1     ****   -0.0140 
      9 C9          0.9380    4.9130   -3.3860 C.2     1     ****   -0.2180 
     10 C10        -0.3470    4.5110   -2.9500 C.2     1     ****   -0.2100 
     11 C11        -0.7890    3.5240   -3.8000 C.2     1     ****   -0.0680 
     12 N1          0.1940    3.3230   -4.7360 N.pl3   1     ****   -0.0590 
     13 C12         0.1190    2.3420   -5.8090 C.3     1     ****    0.0830 
     14 C13        -1.0120    5.0810   -1.8030 C.2     1     ****    0.6180 
     15 O1         -2.1220    4.7300   -1.4270 O.2     1     ****   -0.5450 
     16 C14        -0.2390    6.1460   -1.0930 C.ar    1     ****   -0.1220 
     17 C15        -0.8160    6.7510    0.0300 C.ar    1     ****   -0.0930 
     18 C16        -0.1250    7.7490    0.7190 C.ar    1     ****   -0.1210 
     19 C17         1.1420    8.1470    0.2940 C.ar    1     ****   -0.1210 
     20 C18         1.7280    7.5510   -0.8240 C.ar    1     ****   -0.0930 
     21 C19         1.0450    6.5490   -1.5240 C.ar    1     ****   -0.1210 
     22 C20         1.7090    5.9360   -2.7160 C.2     1     ****    0.6200 
     23 O2          2.8230    6.2870   -3.0800 O.2     1     ****   -0.5540 
     24 H1          3.9600    2.7900   -9.5740 H       1     ****    0.1380 
     25 H2          2.0150    1.2950   -9.9310 H       1     ****    0.1380 
     26 H3          0.2660    1.1030   -8.2030 H       1     ****    0.1340 
     27 H4          4.1550    4.0940   -7.4880 H       1     ****    0.1410 
     28 H5          3.3080    3.7430   -4.8060 H       1     ****    0.0880 
     29 H6          2.7110    5.1910   -5.6430 H       1     ****    0.0970 
     30 H7         -1.7070    2.9510   -3.8170 H       1     ****    0.1870 
     31 H8         -0.8680    2.4560   -6.2720 H       1     ****    0.0700 
     32 H9          0.1990    1.3550   -5.3390 H       1     ****    0.0680 
     33 H10        -1.8020    6.4590    0.3820 H       1     ****    0.1590 
     34 H11        -0.5760    8.2170    1.5900 H       1     ****    0.1380 
     35 H12         1.6750    8.9240    0.8340 H       1     ****    0.1380 
     36 H13         2.7160    7.8800   -1.1340 H       1     ****    0.1580 
@<TRIPOS>BOND
     1  2 1 ar
     2  3 2 ar
     3  4 3 ar
     4  5 4 ar
     5  6 1 ar
     6  6 5 ar
     7  7 5 1
     8  8 7 1
     9  9 8 2
    10 10 9 ar
    11 11 10 2
    12 12 8 ar
    13 12 11 1
    14 13 4 1
    15 13 12 1
    16 14 10 1
    17 15 14 2
    18 16 14 1
    19 17 16 ar
    20 18 17 ar
    21 19 18 ar
    22 20 19 ar
    23 21 16 ar
    24 21 20 ar
    25 22 9 1
    26 22 21 1
    27 23 22 2
    28 24 1 1
    29 25 2 1
    30 26 3 1
    31 27 6 1
    32 28 7 1
    33 29 7 1
    34 30 11 1
    35 31 13 1
    36 32 13 1
    37 33 17 1
    38 34 18 1
    39 35 19 1
    40 36 20 1
@<TRIPOS>SUBSTRUCTURE
1     ****    1
@<TRIPOS>MOLECULE
ZINC00001905
20 21 1 0 0 
SMALL
USER_CHARGES


@<TRIPOS>ATOM
      1 C1          5.3580   -6.8050   -1.2660 C.3     1     ****   -0.0850 
      2 C2          4.9700   -7.5910   -0.0110 C.3     1     ****   -0.0850 
      3 C3          5.2600   -9.0860   -0.1020 C.3     1     ****   -0.1060 
      4 C4          4.2310   -9.8390   -0.8690 C.2     1     ****    0.3910 
      5 N1          3.7930  -11.0560   -0.6110 N.2     1     ****   -0.3830 
      6 N2          2.8500  -11.3370   -1.5690 N.2     1     ****   -0.0510 
      7 N3          2.7040  -10.3210   -2.4060 N.2     1     ****   -0.1980 
      8 N4          3.5710   -9.3870   -1.9800 N.pl3   1     ****   -0.0740 
      9 C5          3.6620   -8.1190   -2.6660 C.3     1     ****    0.0520 
     10 C6          5.0410   -7.4720   -2.6060 C.3     1     ****   -0.0980 
     11 H1          6.4350   -6.5960   -1.2370 H       1     ****    0.0500 
     12 H2          4.8610   -5.8280   -1.2230 H       1     ****    0.0480 
     13 H3          5.5290   -7.1700    0.8340 H       1     ****    0.0560 
     14 H4          3.9080   -7.4240    0.2140 H       1     ****    0.0530 
     15 H5          6.2510   -9.2660   -0.5320 H       1     ****    0.0720 
     16 H6          5.2820   -9.4940    0.9170 H       1     ****    0.0860 
     17 H7          3.4100   -8.3100   -3.7160 H       1     ****    0.0820 
     18 H8          2.8900   -7.4640   -2.2480 H       1     ****    0.0650 
     19 H9          5.1090   -6.7050   -3.3870 H       1     ****    0.0620 
     20 H10         5.8150   -8.2140   -2.8390 H       1     ****    0.0610 
@<TRIPOS>BOND
     1  2 1 1
     2  3 2 1
     3  4 3 1
     4  5 4 2
     5  6 5 1
     6  7 6 2
     7  8 4 1
     8  8 7 1
     9  9 8 1
    10 10 1 1
    11 10 9 1
    12 11 1 1
    13 12 1 1
    14 13 2 1
    15 14 2 1
    16 15 3 1
    17 16 3 1
    18 17 9 1
    19 18 9 1
    20 19 10 1
    21 20 10 1
@<TRIPOS>SUBSTRUCTURE
1     ****    1

########## Name        : 1VRT.lig
########## Description : AM1BCC_CHARGES =  -0.0002 ORIGINAL_CHARGES =  -0.0000

@<TRIPOS>MOLECULE
1VRT.lig
34    37    1     0     0    
SMALL
USER_CHARGES
@<TRIPOS>ATOM
1     N1       4.0540  -36.9310   22.2210 N.ar    1  LIG  -0.6650  -0.6200 
2     C1       4.9660  -36.2380   22.9390 C.ar    1  LIG   0.3947   0.1600 
3     H1       6.0082  -36.2811   22.6707 H       1  LIG   0.0281   0.1500 
4     C2       4.6240  -35.4500   24.0360 C.ar    1  LIG  -0.2334  -0.1500 
5     H2       5.3884  -34.9151   24.5740 H       1  LIG   0.1480   0.1500 
6     C3       3.3050  -35.3690   24.4150 C.ar    1  LIG  -0.0698  -0.1435 
7     C4       2.3460  -36.0770   23.6860 C.ar    1  LIG  -0.0398   0.1170 
8     N2       0.9890  -36.0280   24.1030 N.am    1  LIG  -0.4596  -0.5470 
9     H3       0.7643  -35.9928   25.0860 H       1  LIG   0.3311   0.3700 
10    C5      -0.1450  -36.0180   23.4080 C.2     1  LIG   0.7361   0.5438 
11    C6      -0.1190  -36.0770   21.8860 C.ar    1  LIG  -0.2550   0.0862 
12    C7      -1.1230  -35.3990   21.1890 C.ar    1  LIG  -0.0321  -0.1500 
13    H4      -1.7552  -34.6955   21.7041 H       1  LIG   0.1623   0.1500 
14    C8      -1.2960  -35.6300   19.8690 C.ar    1  LIG  -0.2723  -0.1500 
15    H5      -2.0662  -35.1073   19.3273 H       1  LIG   0.1522   0.1500 
16    C9      -0.4670  -36.5450   19.2400 C.ar    1  LIG   0.4373   0.1600 
17    H6      -0.5947  -36.7554   18.1915 H       1  LIG   0.0280   0.1500 
18    N3       0.5220  -37.2120   19.8740 N.ar    1  LIG  -0.6893  -0.6200 
19    C10      0.7040  -36.9790   21.1800 C.ar    1  LIG   0.6480   0.4100 
20    N4       1.7670  -37.6730   21.8260 N.pl3   1  LIG  -0.6924  -0.3690 
21    C11      2.7540  -36.8570   22.5840 C.ar    1  LIG   0.5805   0.4100 
22    C12      2.9040  -34.5090   25.6010 C.3     1  LIG  -0.0620   0.1435 
23    H7       2.2235  -33.7630   25.2820 H       1  LIG   0.0570   0.0000 
24    H8       2.4436  -35.1154   26.3371 H       1  LIG   0.0495   0.0000 
25    H9       3.7654  -34.0491   26.0108 H       1  LIG   0.0519   0.0000 
26    O1      -1.2400  -35.9060   23.9770 O.2     1  LIG  -0.6361  -0.5700 
27    C13      2.3440  -38.7570   21.0360 C.3     1  LIG   0.1354   0.0690 
28    H10      3.1238  -38.3754   20.4296 H       1  LIG   0.0981   0.1000 
29    C14      2.9380  -39.8900   21.8010 C.3     1  LIG  -0.1181  -0.2000 
30    H11      3.8890  -40.1268   21.3997 H       1  LIG   0.0732   0.1000 
31    H12      3.0430  -39.6129   22.8177 H       1  LIG   0.0789   0.1000 
32    C15      1.6390  -40.0610   21.0880 C.3     1  LIG  -0.1196  -0.2000 
33    H13      0.6832  -39.9283   21.5242 H       1  LIG   0.0807   0.1000 
34    H14      1.5292  -40.4423   20.1061 H       1  LIG   0.0733   0.1000 
@<TRIPOS>BOND
1     2     1     ar
2     3     2     1
3     4     2     ar
4     5     4     1
5     6     4     ar
6     7     6     ar
7     8     7     1
8     9     8     1
9     10    8     1
10    11    10    1
11    12    11    ar
12    13    12    1
13    14    12    ar
14    15    14    1
15    16    14    ar
16    17    16    1
17    18    16    ar
18    19    11    ar
19    19    18    ar
20    20    19    1
21    21    1     ar
22    21    7     ar
23    21    20    1
24    22    6     1
25    23    22    1
26    24    22    1
27    25    22    1
28    26    10    2
29    27    20    1
30    28    27    1
31    29    27    1
32    30    29    1
33    31    29    1
34    32    27    1
35    32    29    1
36    33    32    1
37    34    32    1
@<TRIPOS>SUBSTRUCTURE
1   LIG    1    
 
